data_graphite_ortho

_audit_creation_method RASPA-1.0
_audit_creation_date 2012-2-3
_audit_author_name 'David Dubbeldam'

_cell_length_a    41.82    
_cell_length_b    25.56    
_cell_length_c    25.56    
_cell_angle_alpha 90
_cell_angle_beta  90
_cell_angle_gamma 90
_cell_volume      27321.57      

_symmetry_cell_setting          triclinic
_symmetry_space_group_name_Hall 'P 1'
_symmetry_space_group_name_H-M  'P 1'
_symmetry_Int_Tables_number     1

_symmetry_equiv_pos_as_xyz 'x,y,z'

loop_
_atom_site_label
_atom_site_type_symbol
_atom_site_fract_x
_atom_site_fract_y
_atom_site_fract_z
_atom_site_charge
C1        C        0.0        0.027778        0.0        0        
C2        C        0.029412        0.111112        0.0        0        
C3        C        0.0        0.138888        0.0        0        
C4        C        0.029412        0.055555        0.0        0        
C1        C        0.0        0.194445        0.0        0        
C2        C        0.029412        0.277778        0.0        0        
C3        C        0.0        0.305555        0.0        0        
C4        C        0.029412        0.222222        0.0        0        
C1        C        0.0        0.361112        0.0        0        
C2        C        0.029412        0.444445        0.0        0        
C3        C        0.0        0.472222        0.0        0        
C4        C        0.029412        0.388888        0.0        0        
C1        C        0.0        0.527778        0.0        0        
C2        C        0.029412        0.611112        0.0        0        
C3        C        0.0        0.638888        0.0        0        
C4        C        0.029412        0.555555        0.0        0        
C1        C        0.0        0.694445        0.0        0        
C2        C        0.029412        0.777778        0.0        0        
C3        C        0.0        0.805555        0.0        0        
C4        C        0.029412        0.722222        0.0        0        
C1        C        0.0        0.861112        0.0        0        
C2        C        0.029412        0.944445        0.0        0        
C3        C        0.0        0.972222        0.0        0        
C4        C        0.029412        0.888888        0.0        0        
C1        C        0.058824        0.027778        0.0        0        
C2        C        0.088235        0.111112        0.0        0        
C3        C        0.058824        0.138888        0.0        0        
C4        C        0.088235        0.055555        0.0        0        
C1        C        0.058824        0.194445        0.0        0        
C2        C        0.088235        0.277778        0.0        0        
C3        C        0.058824        0.305555        0.0        0        
C4        C        0.088235        0.222222        0.0        0        
C1        C        0.058824        0.361112        0.0        0        
C2        C        0.088235        0.444445        0.0        0        
C3        C        0.058824        0.472222        0.0        0        
C4        C        0.088235        0.388888        0.0        0        
C1        C        0.058824        0.527778        0.0        0        
C2        C        0.088235        0.611112        0.0        0        
C3        C        0.058824        0.638888        0.0        0        
C4        C        0.088235        0.555555        0.0        0        
C1        C        0.058824        0.694445        0.0        0        
C2        C        0.088235        0.777778        0.0        0        
C3        C        0.058824        0.805555        0.0        0        
C4        C        0.088235        0.722222        0.0        0        
C1        C        0.058824        0.861112        0.0        0        
C2        C        0.088235        0.944445        0.0        0        
C3        C        0.058824        0.972222        0.0        0        
C4        C        0.088235        0.888888        0.0        0        
C1        C        0.117647        0.027778        0.0        0        
C2        C        0.147059        0.111112        0.0        0        
C3        C        0.117647        0.138888        0.0        0        
C4        C        0.147059        0.055555        0.0        0        
C1        C        0.117647        0.194445        0.0        0        
C2        C        0.147059        0.277778        0.0        0        
C3        C        0.117647        0.305555        0.0        0        
C4        C        0.147059        0.222222        0.0        0        
C1        C        0.117647        0.361112        0.0        0        
C2        C        0.147059        0.444445        0.0        0        
C3        C        0.117647        0.472222        0.0        0        
C4        C        0.147059        0.388888        0.0        0        
C1        C        0.117647        0.527778        0.0        0        
C2        C        0.147059        0.611112        0.0        0        
C3        C        0.117647        0.638888        0.0        0        
C4        C        0.147059        0.555555        0.0        0        
C1        C        0.117647        0.694445        0.0        0        
C2        C        0.147059        0.777778        0.0        0        
C3        C        0.117647        0.805555        0.0        0        
C4        C        0.147059        0.722222        0.0        0        
C1        C        0.117647        0.861112        0.0        0        
C2        C        0.147059        0.944445        0.0        0        
C3        C        0.117647        0.972222        0.0        0        
C4        C        0.147059        0.888888        0.0        0        
C1        C        0.176471        0.027778        0.0        0        
C2        C        0.205882        0.111112        0.0        0        
C3        C        0.176471        0.138888        0.0        0        
C4        C        0.205882        0.055555        0.0        0        
C1        C        0.176471        0.194445        0.0        0        
C2        C        0.205882        0.277778        0.0        0        
C3        C        0.176471        0.305555        0.0        0        
C4        C        0.205882        0.222222        0.0        0        
C1        C        0.176471        0.361112        0.0        0        
C2        C        0.205882        0.444445        0.0        0        
C3        C        0.176471        0.472222        0.0        0        
C4        C        0.205882        0.388888        0.0        0        
C1        C        0.176471        0.527778        0.0        0        
C2        C        0.205882        0.611112        0.0        0        
C3        C        0.176471        0.638888        0.0        0        
C4        C        0.205882        0.555555        0.0        0        
C1        C        0.176471        0.694445        0.0        0        
C2        C        0.205882        0.777778        0.0        0        
C3        C        0.176471        0.805555        0.0        0        
C4        C        0.205882        0.722222        0.0        0        
C1        C        0.176471        0.861112        0.0        0        
C2        C        0.205882        0.944445        0.0        0        
C3        C        0.176471        0.972222        0.0        0        
C4        C        0.205882        0.888888        0.0        0        
C1        C        0.235294        0.027778        0.0        0        
C2        C        0.264706        0.111112        0.0        0        
C3        C        0.235294        0.138888        0.0        0        
C4        C        0.264706        0.055555        0.0        0        
C1        C        0.235294        0.194445        0.0        0        
C2        C        0.264706        0.277778        0.0        0        
C3        C        0.235294        0.305555        0.0        0        
C4        C        0.264706        0.222222        0.0        0        
C1        C        0.235294        0.361112        0.0        0        
C2        C        0.264706        0.444445        0.0        0        
C3        C        0.235294        0.472222        0.0        0        
C4        C        0.264706        0.388888        0.0        0        
C1        C        0.235294        0.527778        0.0        0        
C2        C        0.264706        0.611112        0.0        0        
C3        C        0.235294        0.638888        0.0        0        
C4        C        0.264706        0.555555        0.0        0        
C1        C        0.235294        0.694445        0.0        0        
C2        C        0.264706        0.777778        0.0        0        
C3        C        0.235294        0.805555        0.0        0        
C4        C        0.264706        0.722222        0.0        0        
C1        C        0.235294        0.861112        0.0        0        
C2        C        0.264706        0.944445        0.0        0        
C3        C        0.235294        0.972222        0.0        0        
C4        C        0.264706        0.888888        0.0        0        
C1        C        0.294118        0.027778        0.0        0        
C2        C        0.323529        0.111112        0.0        0        
C3        C        0.294118        0.138888        0.0        0        
C4        C        0.323529        0.055555        0.0        0        
C1        C        0.294118        0.194445        0.0        0        
C2        C        0.323529        0.277778        0.0        0        
C3        C        0.294118        0.305555        0.0        0        
C4        C        0.323529        0.222222        0.0        0        
C1        C        0.294118        0.361112        0.0        0        
C2        C        0.323529        0.444445        0.0        0        
C3        C        0.294118        0.472222        0.0        0        
C4        C        0.323529        0.388888        0.0        0        
C1        C        0.294118        0.527778        0.0        0        
C2        C        0.323529        0.611112        0.0        0        
C3        C        0.294118        0.638888        0.0        0        
C4        C        0.323529        0.555555        0.0        0        
C1        C        0.294118        0.694445        0.0        0        
C2        C        0.323529        0.777778        0.0        0        
C3        C        0.294118        0.805555        0.0        0        
C4        C        0.323529        0.722222        0.0        0        
C1        C        0.294118        0.861112        0.0        0        
C2        C        0.323529        0.944445        0.0        0        
C3        C        0.294118        0.972222        0.0        0        
C4        C        0.323529        0.888888        0.0        0        
C1        C        0.352941        0.027778        0.0        0        
C2        C        0.382353        0.111112        0.0        0        
C3        C        0.352941        0.138888        0.0        0        
C4        C        0.382353        0.055555        0.0        0        
C1        C        0.352941        0.194445        0.0        0        
C2        C        0.382353        0.277778        0.0        0        
C3        C        0.352941        0.305555        0.0        0        
C4        C        0.382353        0.222222        0.0        0        
C1        C        0.352941        0.361112        0.0        0        
C2        C        0.382353        0.444445        0.0        0        
C3        C        0.352941        0.472222        0.0        0        
C4        C        0.382353        0.388888        0.0        0        
C1        C        0.352941        0.527778        0.0        0        
C2        C        0.382353        0.611112        0.0        0        
C3        C        0.352941        0.638888        0.0        0        
C4        C        0.382353        0.555555        0.0        0        
C1        C        0.352941        0.694445        0.0        0        
C2        C        0.382353        0.777778        0.0        0        
C3        C        0.352941        0.805555        0.0        0        
C4        C        0.382353        0.722222        0.0        0        
C1        C        0.352941        0.861112        0.0        0        
C2        C        0.382353        0.944445        0.0        0        
C3        C        0.352941        0.972222        0.0        0        
C4        C        0.382353        0.888888        0.0        0        
C1        C        0.411765        0.027778        0.0        0        
C2        C        0.441176        0.111112        0.0        0        
C3        C        0.411765        0.138888        0.0        0        
C4        C        0.441176        0.055555        0.0        0        
C1        C        0.411765        0.194445        0.0        0        
C2        C        0.441176        0.277778        0.0        0        
C3        C        0.411765        0.305555        0.0        0        
C4        C        0.441176        0.222222        0.0        0        
C1        C        0.411765        0.361112        0.0        0        
C2        C        0.441176        0.444445        0.0        0        
C3        C        0.411765        0.472222        0.0        0        
C4        C        0.441176        0.388888        0.0        0        
C1        C        0.411765        0.527778        0.0        0        
C2        C        0.441176        0.611112        0.0        0        
C3        C        0.411765        0.638888        0.0        0        
C4        C        0.441176        0.555555        0.0        0        
C1        C        0.411765        0.694445        0.0        0        
C2        C        0.441176        0.777778        0.0        0        
C3        C        0.411765        0.805555        0.0        0        
C4        C        0.441176        0.722222        0.0        0        
C1        C        0.411765        0.861112        0.0        0        
C2        C        0.441176        0.944445        0.0        0        
C3        C        0.411765        0.972222        0.0        0        
C4        C        0.441176        0.888888        0.0        0        
C1        C        0.470588        0.027778        0.0        0        
C2        C        0.5        0.111112        0.0        0        
C3        C        0.470588        0.138888        0.0        0        
C4        C        0.5        0.055555        0.0        0        
C1        C        0.470588        0.194445        0.0        0        
C2        C        0.5        0.277778        0.0        0        
C3        C        0.470588        0.305555        0.0        0        
C4        C        0.5        0.222222        0.0        0        
C1        C        0.470588        0.361112        0.0        0        
C2        C        0.5        0.444445        0.0        0        
C3        C        0.470588        0.472222        0.0        0        
C4        C        0.5        0.388888        0.0        0        
C1        C        0.470588        0.527778        0.0        0        
C2        C        0.5        0.611112        0.0        0        
C3        C        0.470588        0.638888        0.0        0        
C4        C        0.5        0.555555        0.0        0        
C1        C        0.470588        0.694445        0.0        0        
C2        C        0.5        0.777778        0.0        0        
C3        C        0.470588        0.805555        0.0        0        
C4        C        0.5        0.722222        0.0        0        
C1        C        0.470588        0.861112        0.0        0        
C2        C        0.5        0.944445        0.0        0        
C3        C        0.470588        0.972222        0.0        0        
C4        C        0.5        0.888888        0.0        0        
C1        C        0.529412        0.027778        0.0        0        
C2        C        0.558824        0.111112        0.0        0        
C3        C        0.529412        0.138888        0.0        0        
C4        C        0.558824        0.055555        0.0        0        
C1        C        0.529412        0.194445        0.0        0        
C2        C        0.558824        0.277778        0.0        0        
C3        C        0.529412        0.305555        0.0        0        
C4        C        0.558824        0.222222        0.0        0        
C1        C        0.529412        0.361112        0.0        0        
C2        C        0.558824        0.444445        0.0        0        
C3        C        0.529412        0.472222        0.0        0        
C4        C        0.558824        0.388888        0.0        0        
C1        C        0.529412        0.527778        0.0        0        
C2        C        0.558824        0.611112        0.0        0        
C3        C        0.529412        0.638888        0.0        0        
C4        C        0.558824        0.555555        0.0        0        
C1        C        0.529412        0.694445        0.0        0        
C2        C        0.558824        0.777778        0.0        0        
C3        C        0.529412        0.805555        0.0        0        
C4        C        0.558824        0.722222        0.0        0        
C1        C        0.529412        0.861112        0.0        0        
C2        C        0.558824        0.944445        0.0        0        
C3        C        0.529412        0.972222        0.0        0        
C4        C        0.558824        0.888888        0.0        0        
C1        C        0.588235        0.027778        0.0        0        
C2        C        0.617647        0.111112        0.0        0        
C3        C        0.588235        0.138888        0.0        0        
C4        C        0.617647        0.055555        0.0        0        
C1        C        0.588235        0.194445        0.0        0        
C2        C        0.617647        0.277778        0.0        0        
C3        C        0.588235        0.305555        0.0        0        
C4        C        0.617647        0.222222        0.0        0        
C1        C        0.588235        0.361112        0.0        0        
C2        C        0.617647        0.444445        0.0        0        
C3        C        0.588235        0.472222        0.0        0        
C4        C        0.617647        0.388888        0.0        0        
C1        C        0.588235        0.527778        0.0        0        
C2        C        0.617647        0.611112        0.0        0        
C3        C        0.588235        0.638888        0.0        0        
C4        C        0.617647        0.555555        0.0        0        
C1        C        0.588235        0.694445        0.0        0        
C2        C        0.617647        0.777778        0.0        0        
C3        C        0.588235        0.805555        0.0        0        
C4        C        0.617647        0.722222        0.0        0        
C1        C        0.588235        0.861112        0.0        0        
C2        C        0.617647        0.944445        0.0        0        
C3        C        0.588235        0.972222        0.0        0        
C4        C        0.617647        0.888888        0.0        0        
C1        C        0.647059        0.027778        0.0        0        
C2        C        0.676471        0.111112        0.0        0        
C3        C        0.647059        0.138888        0.0        0        
C4        C        0.676471        0.055555        0.0        0        
C1        C        0.647059        0.194445        0.0        0        
C2        C        0.676471        0.277778        0.0        0        
C3        C        0.647059        0.305555        0.0        0        
C4        C        0.676471        0.222222        0.0        0        
C1        C        0.647059        0.361112        0.0        0        
C2        C        0.676471        0.444445        0.0        0        
C3        C        0.647059        0.472222        0.0        0        
C4        C        0.676471        0.388888        0.0        0        
C1        C        0.647059        0.527778        0.0        0        
C2        C        0.676471        0.611112        0.0        0        
C3        C        0.647059        0.638888        0.0        0        
C4        C        0.676471        0.555555        0.0        0        
C1        C        0.647059        0.694445        0.0        0        
C2        C        0.676471        0.777778        0.0        0        
C3        C        0.647059        0.805555        0.0        0        
C4        C        0.676471        0.722222        0.0        0        
C1        C        0.647059        0.861112        0.0        0        
C2        C        0.676471        0.944445        0.0        0        
C3        C        0.647059        0.972222        0.0        0        
C4        C        0.676471        0.888888        0.0        0        
C1        C        0.705882        0.027778        0.0        0        
C2        C        0.735294        0.111112        0.0        0        
C3        C        0.705882        0.138888        0.0        0        
C4        C        0.735294        0.055555        0.0        0        
C1        C        0.705882        0.194445        0.0        0        
C2        C        0.735294        0.277778        0.0        0        
C3        C        0.705882        0.305555        0.0        0        
C4        C        0.735294        0.222222        0.0        0        
C1        C        0.705882        0.361112        0.0        0        
C2        C        0.735294        0.444445        0.0        0        
C3        C        0.705882        0.472222        0.0        0        
C4        C        0.735294        0.388888        0.0        0        
C1        C        0.705882        0.527778        0.0        0        
C2        C        0.735294        0.611112        0.0        0        
C3        C        0.705882        0.638888        0.0        0        
C4        C        0.735294        0.555555        0.0        0        
C1        C        0.705882        0.694445        0.0        0        
C2        C        0.735294        0.777778        0.0        0        
C3        C        0.705882        0.805555        0.0        0        
C4        C        0.735294        0.722222        0.0        0        
C1        C        0.705882        0.861112        0.0        0        
C2        C        0.735294        0.944445        0.0        0        
C3        C        0.705882        0.972222        0.0        0        
C4        C        0.735294        0.888888        0.0        0        
C1        C        0.764706        0.027778        0.0        0        
C2        C        0.794118        0.111112        0.0        0        
C3        C        0.764706        0.138888        0.0        0        
C4        C        0.794118        0.055555        0.0        0        
C1        C        0.764706        0.194445        0.0        0        
C2        C        0.794118        0.277778        0.0        0        
C3        C        0.764706        0.305555        0.0        0        
C4        C        0.794118        0.222222        0.0        0        
C1        C        0.764706        0.361112        0.0        0        
C2        C        0.794118        0.444445        0.0        0        
C3        C        0.764706        0.472222        0.0        0        
C4        C        0.794118        0.388888        0.0        0        
C1        C        0.764706        0.527778        0.0        0        
C2        C        0.794118        0.611112        0.0        0        
C3        C        0.764706        0.638888        0.0        0        
C4        C        0.794118        0.555555        0.0        0        
C1        C        0.764706        0.694445        0.0        0        
C2        C        0.794118        0.777778        0.0        0        
C3        C        0.764706        0.805555        0.0        0        
C4        C        0.794118        0.722222        0.0        0        
C1        C        0.764706        0.861112        0.0        0        
C2        C        0.794118        0.944445        0.0        0        
C3        C        0.764706        0.972222        0.0        0        
C4        C        0.794118        0.888888        0.0        0        
C1        C        0.823529        0.027778        0.0        0        
C2        C        0.852941        0.111112        0.0        0        
C3        C        0.823529        0.138888        0.0        0        
C4        C        0.852941        0.055555        0.0        0        
C1        C        0.823529        0.194445        0.0        0        
C2        C        0.852941        0.277778        0.0        0        
C3        C        0.823529        0.305555        0.0        0        
C4        C        0.852941        0.222222        0.0        0        
C1        C        0.823529        0.361112        0.0        0        
C2        C        0.852941        0.444445        0.0        0        
C3        C        0.823529        0.472222        0.0        0        
C4        C        0.852941        0.388888        0.0        0        
C1        C        0.823529        0.527778        0.0        0        
C2        C        0.852941        0.611112        0.0        0        
C3        C        0.823529        0.638888        0.0        0        
C4        C        0.852941        0.555555        0.0        0        
C1        C        0.823529        0.694445        0.0        0        
C2        C        0.852941        0.777778        0.0        0        
C3        C        0.823529        0.805555        0.0        0        
C4        C        0.852941        0.722222        0.0        0        
C1        C        0.823529        0.861112        0.0        0        
C2        C        0.852941        0.944445        0.0        0        
C3        C        0.823529        0.972222        0.0        0        
C4        C        0.852941        0.888888        0.0        0        
C1        C        0.882353        0.027778        0.0        0        
C2        C        0.911765        0.111112        0.0        0        
C3        C        0.882353        0.138888        0.0        0        
C4        C        0.911765        0.055555        0.0        0        
C1        C        0.882353        0.194445        0.0        0        
C2        C        0.911765        0.277778        0.0        0        
C3        C        0.882353        0.305555        0.0        0        
C4        C        0.911765        0.222222        0.0        0        
C1        C        0.882353        0.361112        0.0        0        
C2        C        0.911765        0.444445        0.0        0        
C3        C        0.882353        0.472222        0.0        0        
C4        C        0.911765        0.388888        0.0        0        
C1        C        0.882353        0.527778        0.0        0        
C2        C        0.911765        0.611112        0.0        0        
C3        C        0.882353        0.638888        0.0        0        
C4        C        0.911765        0.555555        0.0        0        
C1        C        0.882353        0.694445        0.0        0        
C2        C        0.911765        0.777778        0.0        0        
C3        C        0.882353        0.805555        0.0        0        
C4        C        0.911765        0.722222        0.0        0        
C1        C        0.882353        0.861112        0.0        0        
C2        C        0.911765        0.944445        0.0        0        
C3        C        0.882353        0.972222        0.0        0        
C4        C        0.911765        0.888888        0.0        0        
C1        C        0.941176        0.027778        0.0        0        
C3        C        0.941176        0.138888        0.0        0        
C1        C        0.941176        0.194445        0.0        0        
C3        C        0.941176        0.305555        0.0        0        
C1        C        0.941176        0.361112        0.0        0        
C3        C        0.941176        0.472222        0.0        0        
C1        C        0.941176        0.527778        0.0        0        
C3        C        0.941176        0.638888        0.0        0        
C1        C        0.941176        0.694445        0.0        0        
C3        C        0.941176        0.805555        0.0        0        
C1        C        0.941176        0.861112        0.0        0        
C3        C        0.941176        0.972222        0.0        0        
C2        C        0.970588        0.111112        0.0        0        
C4        C        0.970588        0.055555        0.0        0        
C2        C        0.970588        0.277778        0.0        0        
C4        C        0.970588        0.222222        0.0        0        
C2        C        0.970588        0.444445        0.0        0        
C4        C        0.970588        0.388888        0.0        0        
C2        C        0.970588        0.611112        0.0        0        
C4        C        0.970588        0.555555        0.0        0        
C2        C        0.970588        0.777778        0.0        0        
C4        C        0.970588        0.722222        0.0        0        
C2        C        0.970588        0.944445        0.0        0        
C4        C        0.970588        0.888888        0.0        0        
