data_graphite_ortho

_audit_creation_method RASPA-1.0
_audit_creation_date 2012-2-3
_audit_author_name 'David Dubbeldam'

_cell_length_a    34.44    
_cell_length_b    25.56    
_cell_length_c    25.56    
_cell_angle_alpha 90
_cell_angle_beta  90
_cell_angle_gamma 90
_cell_volume      22500.12      

_symmetry_cell_setting          triclinic
_symmetry_space_group_name_Hall 'P 1'
_symmetry_space_group_name_H-M  'P 1'
_symmetry_Int_Tables_number     1

_symmetry_equiv_pos_as_xyz 'x,y,z'

loop_
_atom_site_label
_atom_site_type_symbol
_atom_site_fract_x
_atom_site_fract_y
_atom_site_fract_z
_atom_site_charge
C1        C        0.0        0.027778        0.0        0        
C2        C        0.035714        0.111112        0.0        0        
C3        C        0.0        0.138888        0.0        0        
C4        C        0.035714        0.055555        0.0        0        
C1        C        0.0        0.194445        0.0        0        
C2        C        0.035714        0.277778        0.0        0        
C3        C        0.0        0.305555        0.0        0        
C4        C        0.035714        0.222222        0.0        0        
C1        C        0.0        0.361112        0.0        0        
C2        C        0.035714        0.444445        0.0        0        
C3        C        0.0        0.472222        0.0        0        
C4        C        0.035714        0.388888        0.0        0        
C1        C        0.0        0.527778        0.0        0        
C2        C        0.035714        0.611112        0.0        0        
C3        C        0.0        0.638888        0.0        0        
C4        C        0.035714        0.555555        0.0        0        
C1        C        0.0        0.694445        0.0        0        
C2        C        0.035714        0.777778        0.0        0        
C3        C        0.0        0.805555        0.0        0        
C4        C        0.035714        0.722222        0.0        0        
C1        C        0.0        0.861112        0.0        0        
C2        C        0.035714        0.944445        0.0        0        
C3        C        0.0        0.972222        0.0        0        
C4        C        0.035714        0.888888        0.0        0        
C1        C        0.071429        0.027778        0.0        0        
C2        C        0.107143        0.111112        0.0        0        
C3        C        0.071429        0.138888        0.0        0        
C4        C        0.107143        0.055555        0.0        0        
C1        C        0.071429        0.194445        0.0        0        
C2        C        0.107143        0.277778        0.0        0        
C3        C        0.071429        0.305555        0.0        0        
C4        C        0.107143        0.222222        0.0        0        
C1        C        0.071429        0.361112        0.0        0        
C2        C        0.107143        0.444445        0.0        0        
C3        C        0.071429        0.472222        0.0        0        
C4        C        0.107143        0.388888        0.0        0        
C1        C        0.071429        0.527778        0.0        0        
C2        C        0.107143        0.611112        0.0        0        
C3        C        0.071429        0.638888        0.0        0        
C4        C        0.107143        0.555555        0.0        0        
C1        C        0.071429        0.694445        0.0        0        
C2        C        0.107143        0.777778        0.0        0        
C3        C        0.071429        0.805555        0.0        0        
C4        C        0.107143        0.722222        0.0        0        
C1        C        0.071429        0.861112        0.0        0        
C2        C        0.107143        0.944445        0.0        0        
C3        C        0.071429        0.972222        0.0        0        
C4        C        0.107143        0.888888        0.0        0        
C1        C        0.142857        0.027778        0.0        0        
C2        C        0.178571        0.111112        0.0        0        
C3        C        0.142857        0.138888        0.0        0        
C4        C        0.178571        0.055555        0.0        0        
C1        C        0.142857        0.194445        0.0        0        
C2        C        0.178571        0.277778        0.0        0        
C3        C        0.142857        0.305555        0.0        0        
C4        C        0.178571        0.222222        0.0        0        
C1        C        0.142857        0.361112        0.0        0        
C2        C        0.178571        0.444445        0.0        0        
C3        C        0.142857        0.472222        0.0        0        
C4        C        0.178571        0.388888        0.0        0        
C1        C        0.142857        0.527778        0.0        0        
C2        C        0.178571        0.611112        0.0        0        
C3        C        0.142857        0.638888        0.0        0        
C4        C        0.178571        0.555555        0.0        0        
C1        C        0.142857        0.694445        0.0        0        
C2        C        0.178571        0.777778        0.0        0        
C3        C        0.142857        0.805555        0.0        0        
C4        C        0.178571        0.722222        0.0        0        
C1        C        0.142857        0.861112        0.0        0        
C2        C        0.178571        0.944445        0.0        0        
C3        C        0.142857        0.972222        0.0        0        
C4        C        0.178571        0.888888        0.0        0        
C1        C        0.214286        0.027778        0.0        0        
C2        C        0.25        0.111112        0.0        0        
C3        C        0.214286        0.138888        0.0        0        
C4        C        0.25        0.055555        0.0        0        
C1        C        0.214286        0.194445        0.0        0        
C2        C        0.25        0.277778        0.0        0        
C3        C        0.214286        0.305555        0.0        0        
C4        C        0.25        0.222222        0.0        0        
C1        C        0.214286        0.361112        0.0        0        
C2        C        0.25        0.444445        0.0        0        
C3        C        0.214286        0.472222        0.0        0        
C4        C        0.25        0.388888        0.0        0        
C1        C        0.214286        0.527778        0.0        0        
C2        C        0.25        0.611112        0.0        0        
C3        C        0.214286        0.638888        0.0        0        
C4        C        0.25        0.555555        0.0        0        
C1        C        0.214286        0.694445        0.0        0        
C2        C        0.25        0.777778        0.0        0        
C3        C        0.214286        0.805555        0.0        0        
C4        C        0.25        0.722222        0.0        0        
C1        C        0.214286        0.861112        0.0        0        
C2        C        0.25        0.944445        0.0        0        
C3        C        0.214286        0.972222        0.0        0        
C4        C        0.25        0.888888        0.0        0        
C1        C        0.285714        0.027778        0.0        0        
C2        C        0.321429        0.111112        0.0        0        
C3        C        0.285714        0.138888        0.0        0        
C4        C        0.321429        0.055555        0.0        0        
C1        C        0.285714        0.194445        0.0        0        
C2        C        0.321429        0.277778        0.0        0        
C3        C        0.285714        0.305555        0.0        0        
C4        C        0.321429        0.222222        0.0        0        
C1        C        0.285714        0.361112        0.0        0        
C2        C        0.321429        0.444445        0.0        0        
C3        C        0.285714        0.472222        0.0        0        
C4        C        0.321429        0.388888        0.0        0        
C1        C        0.285714        0.527778        0.0        0        
C2        C        0.321429        0.611112        0.0        0        
C3        C        0.285714        0.638888        0.0        0        
C4        C        0.321429        0.555555        0.0        0        
C1        C        0.285714        0.694445        0.0        0        
C2        C        0.321429        0.777778        0.0        0        
C3        C        0.285714        0.805555        0.0        0        
C4        C        0.321429        0.722222        0.0        0        
C1        C        0.285714        0.861112        0.0        0        
C2        C        0.321429        0.944445        0.0        0        
C3        C        0.285714        0.972222        0.0        0        
C4        C        0.321429        0.888888        0.0        0        
C1        C        0.357143        0.027778        0.0        0        
C2        C        0.392857        0.111112        0.0        0        
C3        C        0.357143        0.138888        0.0        0        
C4        C        0.392857        0.055555        0.0        0        
C1        C        0.357143        0.194445        0.0        0        
C2        C        0.392857        0.277778        0.0        0        
C3        C        0.357143        0.305555        0.0        0        
C4        C        0.392857        0.222222        0.0        0        
C1        C        0.357143        0.361112        0.0        0        
C2        C        0.392857        0.444445        0.0        0        
C3        C        0.357143        0.472222        0.0        0        
C4        C        0.392857        0.388888        0.0        0        
C1        C        0.357143        0.527778        0.0        0        
C2        C        0.392857        0.611112        0.0        0        
C3        C        0.357143        0.638888        0.0        0        
C4        C        0.392857        0.555555        0.0        0        
C1        C        0.357143        0.694445        0.0        0        
C2        C        0.392857        0.777778        0.0        0        
C3        C        0.357143        0.805555        0.0        0        
C4        C        0.392857        0.722222        0.0        0        
C1        C        0.357143        0.861112        0.0        0        
C2        C        0.392857        0.944445        0.0        0        
C3        C        0.357143        0.972222        0.0        0        
C4        C        0.392857        0.888888        0.0        0        
C1        C        0.428571        0.027778        0.0        0        
C2        C        0.464286        0.111112        0.0        0        
C3        C        0.428571        0.138888        0.0        0        
C4        C        0.464286        0.055555        0.0        0        
C1        C        0.428571        0.194445        0.0        0        
C2        C        0.464286        0.277778        0.0        0        
C3        C        0.428571        0.305555        0.0        0        
C4        C        0.464286        0.222222        0.0        0        
C1        C        0.428571        0.361112        0.0        0        
C2        C        0.464286        0.444445        0.0        0        
C3        C        0.428571        0.472222        0.0        0        
C4        C        0.464286        0.388888        0.0        0        
C1        C        0.428571        0.527778        0.0        0        
C2        C        0.464286        0.611112        0.0        0        
C3        C        0.428571        0.638888        0.0        0        
C4        C        0.464286        0.555555        0.0        0        
C1        C        0.428571        0.694445        0.0        0        
C2        C        0.464286        0.777778        0.0        0        
C3        C        0.428571        0.805555        0.0        0        
C4        C        0.464286        0.722222        0.0        0        
C1        C        0.428571        0.861112        0.0        0        
C2        C        0.464286        0.944445        0.0        0        
C3        C        0.428571        0.972222        0.0        0        
C4        C        0.464286        0.888888        0.0        0        
C1        C        0.5        0.027778        0.0        0        
C2        C        0.535714        0.111112        0.0        0        
C3        C        0.5        0.138888        0.0        0        
C4        C        0.535714        0.055555        0.0        0        
C1        C        0.5        0.194445        0.0        0        
C2        C        0.535714        0.277778        0.0        0        
C3        C        0.5        0.305555        0.0        0        
C4        C        0.535714        0.222222        0.0        0        
C1        C        0.5        0.361112        0.0        0        
C2        C        0.535714        0.444445        0.0        0        
C3        C        0.5        0.472222        0.0        0        
C4        C        0.535714        0.388888        0.0        0        
C1        C        0.5        0.527778        0.0        0        
C2        C        0.535714        0.611112        0.0        0        
C3        C        0.5        0.638888        0.0        0        
C4        C        0.535714        0.555555        0.0        0        
C1        C        0.5        0.694445        0.0        0        
C2        C        0.535714        0.777778        0.0        0        
C3        C        0.5        0.805555        0.0        0        
C4        C        0.535714        0.722222        0.0        0        
C1        C        0.5        0.861112        0.0        0        
C2        C        0.535714        0.944445        0.0        0        
C3        C        0.5        0.972222        0.0        0        
C4        C        0.535714        0.888888        0.0        0        
C1        C        0.571429        0.027778        0.0        0        
C2        C        0.607143        0.111112        0.0        0        
C3        C        0.571429        0.138888        0.0        0        
C4        C        0.607143        0.055555        0.0        0        
C1        C        0.571429        0.194445        0.0        0        
C2        C        0.607143        0.277778        0.0        0        
C3        C        0.571429        0.305555        0.0        0        
C4        C        0.607143        0.222222        0.0        0        
C1        C        0.571429        0.361112        0.0        0        
C2        C        0.607143        0.444445        0.0        0        
C3        C        0.571429        0.472222        0.0        0        
C4        C        0.607143        0.388888        0.0        0        
C1        C        0.571429        0.527778        0.0        0        
C2        C        0.607143        0.611112        0.0        0        
C3        C        0.571429        0.638888        0.0        0        
C4        C        0.607143        0.555555        0.0        0        
C1        C        0.571429        0.694445        0.0        0        
C2        C        0.607143        0.777778        0.0        0        
C3        C        0.571429        0.805555        0.0        0        
C4        C        0.607143        0.722222        0.0        0        
C1        C        0.571429        0.861112        0.0        0        
C2        C        0.607143        0.944445        0.0        0        
C3        C        0.571429        0.972222        0.0        0        
C4        C        0.607143        0.888888        0.0        0        
C1        C        0.642857        0.027778        0.0        0        
C2        C        0.678571        0.111112        0.0        0        
C3        C        0.642857        0.138888        0.0        0        
C4        C        0.678571        0.055555        0.0        0        
C1        C        0.642857        0.194445        0.0        0        
C2        C        0.678571        0.277778        0.0        0        
C3        C        0.642857        0.305555        0.0        0        
C4        C        0.678571        0.222222        0.0        0        
C1        C        0.642857        0.361112        0.0        0        
C2        C        0.678571        0.444445        0.0        0        
C3        C        0.642857        0.472222        0.0        0        
C4        C        0.678571        0.388888        0.0        0        
C1        C        0.642857        0.527778        0.0        0        
C2        C        0.678571        0.611112        0.0        0        
C3        C        0.642857        0.638888        0.0        0        
C4        C        0.678571        0.555555        0.0        0        
C1        C        0.642857        0.694445        0.0        0        
C2        C        0.678571        0.777778        0.0        0        
C3        C        0.642857        0.805555        0.0        0        
C4        C        0.678571        0.722222        0.0        0        
C1        C        0.642857        0.861112        0.0        0        
C2        C        0.678571        0.944445        0.0        0        
C3        C        0.642857        0.972222        0.0        0        
C4        C        0.678571        0.888888        0.0        0        
C1        C        0.714286        0.027778        0.0        0        
C2        C        0.75        0.111112        0.0        0        
C3        C        0.714286        0.138888        0.0        0        
C4        C        0.75        0.055555        0.0        0        
C1        C        0.714286        0.194445        0.0        0        
C2        C        0.75        0.277778        0.0        0        
C3        C        0.714286        0.305555        0.0        0        
C4        C        0.75        0.222222        0.0        0        
C1        C        0.714286        0.361112        0.0        0        
C2        C        0.75        0.444445        0.0        0        
C3        C        0.714286        0.472222        0.0        0        
C4        C        0.75        0.388888        0.0        0        
C1        C        0.714286        0.527778        0.0        0        
C2        C        0.75        0.611112        0.0        0        
C3        C        0.714286        0.638888        0.0        0        
C4        C        0.75        0.555555        0.0        0        
C1        C        0.714286        0.694445        0.0        0        
C2        C        0.75        0.777778        0.0        0        
C3        C        0.714286        0.805555        0.0        0        
C4        C        0.75        0.722222        0.0        0        
C1        C        0.714286        0.861112        0.0        0        
C2        C        0.75        0.944445        0.0        0        
C3        C        0.714286        0.972222        0.0        0        
C4        C        0.75        0.888888        0.0        0        
C1        C        0.785714        0.027778        0.0        0        
C2        C        0.821429        0.111112        0.0        0        
C3        C        0.785714        0.138888        0.0        0        
C4        C        0.821429        0.055555        0.0        0        
C1        C        0.785714        0.194445        0.0        0        
C2        C        0.821429        0.277778        0.0        0        
C3        C        0.785714        0.305555        0.0        0        
C4        C        0.821429        0.222222        0.0        0        
C1        C        0.785714        0.361112        0.0        0        
C2        C        0.821429        0.444445        0.0        0        
C3        C        0.785714        0.472222        0.0        0        
C4        C        0.821429        0.388888        0.0        0        
C1        C        0.785714        0.527778        0.0        0        
C2        C        0.821429        0.611112        0.0        0        
C3        C        0.785714        0.638888        0.0        0        
C4        C        0.821429        0.555555        0.0        0        
C1        C        0.785714        0.694445        0.0        0        
C2        C        0.821429        0.777778        0.0        0        
C3        C        0.785714        0.805555        0.0        0        
C4        C        0.821429        0.722222        0.0        0        
C1        C        0.785714        0.861112        0.0        0        
C2        C        0.821429        0.944445        0.0        0        
C3        C        0.785714        0.972222        0.0        0        
C4        C        0.821429        0.888888        0.0        0        
C1        C        0.857143        0.027778        0.0        0        
C2        C        0.892857        0.111112        0.0        0        
C3        C        0.857143        0.138888        0.0        0        
C4        C        0.892857        0.055555        0.0        0        
C1        C        0.857143        0.194445        0.0        0        
C2        C        0.892857        0.277778        0.0        0        
C3        C        0.857143        0.305555        0.0        0        
C4        C        0.892857        0.222222        0.0        0        
C1        C        0.857143        0.361112        0.0        0        
C2        C        0.892857        0.444445        0.0        0        
C3        C        0.857143        0.472222        0.0        0        
C4        C        0.892857        0.388888        0.0        0        
C1        C        0.857143        0.527778        0.0        0        
C2        C        0.892857        0.611112        0.0        0        
C3        C        0.857143        0.638888        0.0        0        
C4        C        0.892857        0.555555        0.0        0        
C1        C        0.857143        0.694445        0.0        0        
C2        C        0.892857        0.777778        0.0        0        
C3        C        0.857143        0.805555        0.0        0        
C4        C        0.892857        0.722222        0.0        0        
C1        C        0.857143        0.861112        0.0        0        
C2        C        0.892857        0.944445        0.0        0        
C3        C        0.857143        0.972222        0.0        0        
C4        C        0.892857        0.888888        0.0        0        
C1        C        0.928571        0.027778        0.0        0        
C2        C        0.964286        0.111112        0.0        0        
C3        C        0.928571        0.138888        0.0        0        
C4        C        0.964286        0.055555        0.0        0        
C1        C        0.928571        0.194445        0.0        0        
C2        C        0.964286        0.277778        0.0        0        
C3        C        0.928571        0.305555        0.0        0        
C4        C        0.964286        0.222222        0.0        0        
C1        C        0.928571        0.361112        0.0        0        
C2        C        0.964286        0.444445        0.0        0        
C3        C        0.928571        0.472222        0.0        0        
C4        C        0.964286        0.388888        0.0        0        
C1        C        0.928571        0.527778        0.0        0        
C2        C        0.964286        0.611112        0.0        0        
C3        C        0.928571        0.638888        0.0        0        
C4        C        0.964286        0.555555        0.0        0        
C1        C        0.928571        0.694445        0.0        0        
C2        C        0.964286        0.777778        0.0        0        
C3        C        0.928571        0.805555        0.0        0        
C4        C        0.964286        0.722222        0.0        0        
C1        C        0.928571        0.861112        0.0        0        
C2        C        0.964286        0.944445        0.0        0        
C3        C        0.928571        0.972222        0.0        0        
C4        C        0.964286        0.888888        0.0        0        
