data_graphite_ortho

_audit_creation_method RASPA-1.0
_audit_creation_date 2012-2-3
_audit_author_name 'David Dubbeldam'

_cell_length_a    34.44    
_cell_length_b    34.08    
_cell_length_c    25.56    
_cell_angle_alpha 90
_cell_angle_beta  90
_cell_angle_gamma 90
_cell_volume      30000.16      

_symmetry_cell_setting          triclinic
_symmetry_space_group_name_Hall 'P 1'
_symmetry_space_group_name_H-M  'P 1'
_symmetry_Int_Tables_number     1

_symmetry_equiv_pos_as_xyz 'x,y,z'

loop_
_atom_site_label
_atom_site_type_symbol
_atom_site_fract_x
_atom_site_fract_y
_atom_site_fract_z
_atom_site_charge
C1        C        0.0        0.020834        0.0        0        
C2        C        0.035714        0.083334        0.0        0        
C3        C        0.0        0.104166        0.0        0        
C4        C        0.035714        0.041666        0.0        0        
C1        C        0.0        0.145834        0.0        0        
C2        C        0.035714        0.208334        0.0        0        
C3        C        0.0        0.229166        0.0        0        
C4        C        0.035714        0.166666        0.0        0        
C1        C        0.0        0.270834        0.0        0        
C2        C        0.035714        0.333334        0.0        0        
C3        C        0.0        0.354166        0.0        0        
C4        C        0.035714        0.291666        0.0        0        
C1        C        0.0        0.395833        0.0        0        
C2        C        0.035714        0.458334        0.0        0        
C3        C        0.0        0.479166        0.0        0        
C4        C        0.035714        0.416666        0.0        0        
C1        C        0.0        0.520834        0.0        0        
C2        C        0.035714        0.583334        0.0        0        
C3        C        0.0        0.604166        0.0        0        
C4        C        0.035714        0.541666        0.0        0        
C1        C        0.0        0.645834        0.0        0        
C2        C        0.035714        0.708334        0.0        0        
C3        C        0.0        0.729166        0.0        0        
C4        C        0.035714        0.666666        0.0        0        
C1        C        0.071429        0.020834        0.0        0        
C2        C        0.107143        0.083334        0.0        0        
C3        C        0.071429        0.104166        0.0        0        
C4        C        0.107143        0.041666        0.0        0        
C1        C        0.071429        0.145834        0.0        0        
C2        C        0.107143        0.208334        0.0        0        
C3        C        0.071429        0.229166        0.0        0        
C4        C        0.107143        0.166666        0.0        0        
C1        C        0.071429        0.270834        0.0        0        
C2        C        0.107143        0.333334        0.0        0        
C3        C        0.071429        0.354166        0.0        0        
C4        C        0.107143        0.291666        0.0        0        
C1        C        0.071429        0.395833        0.0        0        
C2        C        0.107143        0.458334        0.0        0        
C3        C        0.071429        0.479166        0.0        0        
C4        C        0.107143        0.416666        0.0        0        
C1        C        0.071429        0.520834        0.0        0        
C2        C        0.107143        0.583334        0.0        0        
C3        C        0.071429        0.604166        0.0        0        
C4        C        0.107143        0.541666        0.0        0        
C1        C        0.071429        0.645834        0.0        0        
C2        C        0.107143        0.708334        0.0        0        
C3        C        0.071429        0.729166        0.0        0        
C4        C        0.107143        0.666666        0.0        0        
C1        C        0.142857        0.020834        0.0        0        
C2        C        0.178571        0.083334        0.0        0        
C3        C        0.142857        0.104166        0.0        0        
C4        C        0.178571        0.041666        0.0        0        
C1        C        0.142857        0.145834        0.0        0        
C2        C        0.178571        0.208334        0.0        0        
C3        C        0.142857        0.229166        0.0        0        
C4        C        0.178571        0.166666        0.0        0        
C1        C        0.142857        0.270834        0.0        0        
C2        C        0.178571        0.333334        0.0        0        
C3        C        0.142857        0.354166        0.0        0        
C4        C        0.178571        0.291666        0.0        0        
C1        C        0.142857        0.395833        0.0        0        
C2        C        0.178571        0.458334        0.0        0        
C3        C        0.142857        0.479166        0.0        0        
C4        C        0.178571        0.416666        0.0        0        
C1        C        0.142857        0.520834        0.0        0        
C2        C        0.178571        0.583334        0.0        0        
C3        C        0.142857        0.604166        0.0        0        
C4        C        0.178571        0.541666        0.0        0        
C1        C        0.142857        0.645834        0.0        0        
C2        C        0.178571        0.708334        0.0        0        
C3        C        0.142857        0.729166        0.0        0        
C4        C        0.178571        0.666666        0.0        0        
C1        C        0.214286        0.020834        0.0        0        
C2        C        0.25        0.083334        0.0        0        
C3        C        0.214286        0.104166        0.0        0        
C4        C        0.25        0.041666        0.0        0        
C1        C        0.214286        0.145834        0.0        0        
C2        C        0.25        0.208334        0.0        0        
C3        C        0.214286        0.229166        0.0        0        
C4        C        0.25        0.166666        0.0        0        
C1        C        0.214286        0.270834        0.0        0        
C2        C        0.25        0.333334        0.0        0        
C3        C        0.214286        0.354166        0.0        0        
C4        C        0.25        0.291666        0.0        0        
C1        C        0.214286        0.395833        0.0        0        
C2        C        0.25        0.458334        0.0        0        
C3        C        0.214286        0.479166        0.0        0        
C4        C        0.25        0.416666        0.0        0        
C1        C        0.214286        0.520834        0.0        0        
C2        C        0.25        0.583334        0.0        0        
C3        C        0.214286        0.604166        0.0        0        
C4        C        0.25        0.541666        0.0        0        
C1        C        0.214286        0.645834        0.0        0        
C2        C        0.25        0.708334        0.0        0        
C3        C        0.214286        0.729166        0.0        0        
C4        C        0.25        0.666666        0.0        0        
C1        C        0.285714        0.020834        0.0        0        
C2        C        0.321429        0.083334        0.0        0        
C3        C        0.285714        0.104166        0.0        0        
C4        C        0.321429        0.041666        0.0        0        
C1        C        0.285714        0.145834        0.0        0        
C2        C        0.321429        0.208334        0.0        0        
C3        C        0.285714        0.229166        0.0        0        
C4        C        0.321429        0.166666        0.0        0        
C1        C        0.285714        0.270834        0.0        0        
C2        C        0.321429        0.333334        0.0        0        
C3        C        0.285714        0.354166        0.0        0        
C4        C        0.321429        0.291666        0.0        0        
C1        C        0.285714        0.395833        0.0        0        
C2        C        0.321429        0.458334        0.0        0        
C3        C        0.285714        0.479166        0.0        0        
C4        C        0.321429        0.416666        0.0        0        
C1        C        0.285714        0.520834        0.0        0        
C2        C        0.321429        0.583334        0.0        0        
C3        C        0.285714        0.604166        0.0        0        
C4        C        0.321429        0.541666        0.0        0        
C1        C        0.285714        0.645834        0.0        0        
C2        C        0.321429        0.708334        0.0        0        
C3        C        0.285714        0.729166        0.0        0        
C4        C        0.321429        0.666666        0.0        0        
C1        C        0.357143        0.020834        0.0        0        
C2        C        0.392857        0.083334        0.0        0        
C3        C        0.357143        0.104166        0.0        0        
C4        C        0.392857        0.041666        0.0        0        
C1        C        0.357143        0.145834        0.0        0        
C2        C        0.392857        0.208334        0.0        0        
C3        C        0.357143        0.229166        0.0        0        
C4        C        0.392857        0.166666        0.0        0        
C1        C        0.357143        0.270834        0.0        0        
C2        C        0.392857        0.333334        0.0        0        
C3        C        0.357143        0.354166        0.0        0        
C4        C        0.392857        0.291666        0.0        0        
C1        C        0.357143        0.395833        0.0        0        
C2        C        0.392857        0.458334        0.0        0        
C3        C        0.357143        0.479166        0.0        0        
C4        C        0.392857        0.416666        0.0        0        
C1        C        0.357143        0.520834        0.0        0        
C2        C        0.392857        0.583334        0.0        0        
C3        C        0.357143        0.604166        0.0        0        
C4        C        0.392857        0.541666        0.0        0        
C1        C        0.357143        0.645834        0.0        0        
C2        C        0.392857        0.708334        0.0        0        
C3        C        0.357143        0.729166        0.0        0        
C4        C        0.392857        0.666666        0.0        0        
C1        C        0.428571        0.020834        0.0        0        
C2        C        0.464286        0.083334        0.0        0        
C3        C        0.428571        0.104166        0.0        0        
C4        C        0.464286        0.041666        0.0        0        
C1        C        0.428571        0.145834        0.0        0        
C2        C        0.464286        0.208334        0.0        0        
C3        C        0.428571        0.229166        0.0        0        
C4        C        0.464286        0.166666        0.0        0        
C1        C        0.428571        0.270834        0.0        0        
C2        C        0.464286        0.333334        0.0        0        
C3        C        0.428571        0.354166        0.0        0        
C4        C        0.464286        0.291666        0.0        0        
C1        C        0.428571        0.395833        0.0        0        
C2        C        0.464286        0.458334        0.0        0        
C3        C        0.428571        0.479166        0.0        0        
C4        C        0.464286        0.416666        0.0        0        
C1        C        0.428571        0.520834        0.0        0        
C2        C        0.464286        0.583334        0.0        0        
C3        C        0.428571        0.604166        0.0        0        
C4        C        0.464286        0.541666        0.0        0        
C1        C        0.428571        0.645834        0.0        0        
C2        C        0.464286        0.708334        0.0        0        
C3        C        0.428571        0.729166        0.0        0        
C4        C        0.464286        0.666666        0.0        0        
C1        C        0.5        0.020834        0.0        0        
C2        C        0.535714        0.083334        0.0        0        
C3        C        0.5        0.104166        0.0        0        
C4        C        0.535714        0.041666        0.0        0        
C1        C        0.5        0.145834        0.0        0        
C2        C        0.535714        0.208334        0.0        0        
C3        C        0.5        0.229166        0.0        0        
C4        C        0.535714        0.166666        0.0        0        
C1        C        0.5        0.270834        0.0        0        
C2        C        0.535714        0.333334        0.0        0        
C3        C        0.5        0.354166        0.0        0        
C4        C        0.535714        0.291666        0.0        0        
C1        C        0.5        0.395833        0.0        0        
C2        C        0.535714        0.458334        0.0        0        
C3        C        0.5        0.479166        0.0        0        
C4        C        0.535714        0.416666        0.0        0        
C1        C        0.5        0.520834        0.0        0        
C2        C        0.535714        0.583334        0.0        0        
C3        C        0.5        0.604166        0.0        0        
C4        C        0.535714        0.541666        0.0        0        
C1        C        0.5        0.645834        0.0        0        
C2        C        0.535714        0.708334        0.0        0        
C3        C        0.5        0.729166        0.0        0        
C4        C        0.535714        0.666666        0.0        0        
C1        C        0.571429        0.020834        0.0        0        
C2        C        0.607143        0.083334        0.0        0        
C3        C        0.571429        0.104166        0.0        0        
C4        C        0.607143        0.041666        0.0        0        
C1        C        0.571429        0.145834        0.0        0        
C2        C        0.607143        0.208334        0.0        0        
C3        C        0.571429        0.229166        0.0        0        
C4        C        0.607143        0.166666        0.0        0        
C1        C        0.571429        0.270834        0.0        0        
C2        C        0.607143        0.333334        0.0        0        
C3        C        0.571429        0.354166        0.0        0        
C4        C        0.607143        0.291666        0.0        0        
C1        C        0.571429        0.395833        0.0        0        
C2        C        0.607143        0.458334        0.0        0        
C3        C        0.571429        0.479166        0.0        0        
C4        C        0.607143        0.416666        0.0        0        
C1        C        0.571429        0.520834        0.0        0        
C2        C        0.607143        0.583334        0.0        0        
C3        C        0.571429        0.604166        0.0        0        
C4        C        0.607143        0.541666        0.0        0        
C1        C        0.571429        0.645834        0.0        0        
C2        C        0.607143        0.708334        0.0        0        
C3        C        0.571429        0.729166        0.0        0        
C4        C        0.607143        0.666666        0.0        0        
C1        C        0.642857        0.020834        0.0        0        
C2        C        0.678571        0.083334        0.0        0        
C3        C        0.642857        0.104166        0.0        0        
C4        C        0.678571        0.041666        0.0        0        
C1        C        0.642857        0.145834        0.0        0        
C2        C        0.678571        0.208334        0.0        0        
C3        C        0.642857        0.229166        0.0        0        
C4        C        0.678571        0.166666        0.0        0        
C1        C        0.642857        0.270834        0.0        0        
C2        C        0.678571        0.333334        0.0        0        
C3        C        0.642857        0.354166        0.0        0        
C4        C        0.678571        0.291666        0.0        0        
C1        C        0.642857        0.395833        0.0        0        
C2        C        0.678571        0.458334        0.0        0        
C3        C        0.642857        0.479166        0.0        0        
C4        C        0.678571        0.416666        0.0        0        
C1        C        0.642857        0.520834        0.0        0        
C2        C        0.678571        0.583334        0.0        0        
C3        C        0.642857        0.604166        0.0        0        
C4        C        0.678571        0.541666        0.0        0        
C1        C        0.642857        0.645834        0.0        0        
C2        C        0.678571        0.708334        0.0        0        
C3        C        0.642857        0.729166        0.0        0        
C4        C        0.678571        0.666666        0.0        0        
C1        C        0.714286        0.020834        0.0        0        
C2        C        0.75        0.083334        0.0        0        
C3        C        0.714286        0.104166        0.0        0        
C4        C        0.75        0.041666        0.0        0        
C1        C        0.714286        0.145834        0.0        0        
C2        C        0.75        0.208334        0.0        0        
C3        C        0.714286        0.229166        0.0        0        
C4        C        0.75        0.166666        0.0        0        
C1        C        0.714286        0.270834        0.0        0        
C2        C        0.75        0.333334        0.0        0        
C3        C        0.714286        0.354166        0.0        0        
C4        C        0.75        0.291666        0.0        0        
C1        C        0.714286        0.395833        0.0        0        
C2        C        0.75        0.458334        0.0        0        
C3        C        0.714286        0.479166        0.0        0        
C4        C        0.75        0.416666        0.0        0        
C1        C        0.714286        0.520834        0.0        0        
C2        C        0.75        0.583334        0.0        0        
C3        C        0.714286        0.604166        0.0        0        
C4        C        0.75        0.541666        0.0        0        
C1        C        0.714286        0.645834        0.0        0        
C2        C        0.75        0.708334        0.0        0        
C3        C        0.714286        0.729166        0.0        0        
C4        C        0.75        0.666666        0.0        0        
C1        C        0.785714        0.020834        0.0        0        
C2        C        0.821429        0.083334        0.0        0        
C3        C        0.785714        0.104166        0.0        0        
C4        C        0.821429        0.041666        0.0        0        
C1        C        0.785714        0.145834        0.0        0        
C2        C        0.821429        0.208334        0.0        0        
C3        C        0.785714        0.229166        0.0        0        
C4        C        0.821429        0.166666        0.0        0        
C1        C        0.785714        0.270834        0.0        0        
C2        C        0.821429        0.333334        0.0        0        
C3        C        0.785714        0.354166        0.0        0        
C4        C        0.821429        0.291666        0.0        0        
C1        C        0.785714        0.395833        0.0        0        
C2        C        0.821429        0.458334        0.0        0        
C3        C        0.785714        0.479166        0.0        0        
C4        C        0.821429        0.416666        0.0        0        
C1        C        0.785714        0.520834        0.0        0        
C2        C        0.821429        0.583334        0.0        0        
C3        C        0.785714        0.604166        0.0        0        
C4        C        0.821429        0.541666        0.0        0        
C1        C        0.785714        0.645834        0.0        0        
C2        C        0.821429        0.708334        0.0        0        
C3        C        0.785714        0.729166        0.0        0        
C4        C        0.821429        0.666666        0.0        0        
C1        C        0.857143        0.020834        0.0        0        
C2        C        0.892857        0.083334        0.0        0        
C3        C        0.857143        0.104166        0.0        0        
C4        C        0.892857        0.041666        0.0        0        
C1        C        0.857143        0.145834        0.0        0        
C2        C        0.892857        0.208334        0.0        0        
C3        C        0.857143        0.229166        0.0        0        
C4        C        0.892857        0.166666        0.0        0        
C1        C        0.857143        0.270834        0.0        0        
C2        C        0.892857        0.333334        0.0        0        
C3        C        0.857143        0.354166        0.0        0        
C4        C        0.892857        0.291666        0.0        0        
C1        C        0.857143        0.395833        0.0        0        
C2        C        0.892857        0.458334        0.0        0        
C3        C        0.857143        0.479166        0.0        0        
C4        C        0.892857        0.416666        0.0        0        
C1        C        0.857143        0.520834        0.0        0        
C2        C        0.892857        0.583334        0.0        0        
C3        C        0.857143        0.604166        0.0        0        
C4        C        0.892857        0.541666        0.0        0        
C1        C        0.857143        0.645834        0.0        0        
C2        C        0.892857        0.708334        0.0        0        
C3        C        0.857143        0.729166        0.0        0        
C4        C        0.892857        0.666666        0.0        0        
C1        C        0.928571        0.020834        0.0        0        
C2        C        0.964286        0.083334        0.0        0        
C3        C        0.928571        0.104166        0.0        0        
C4        C        0.964286        0.041666        0.0        0        
C1        C        0.928571        0.145834        0.0        0        
C2        C        0.964286        0.208334        0.0        0        
C3        C        0.928571        0.229166        0.0        0        
C4        C        0.964286        0.166666        0.0        0        
C1        C        0.928571        0.270834        0.0        0        
C2        C        0.964286        0.333334        0.0        0        
C3        C        0.928571        0.354166        0.0        0        
C4        C        0.964286        0.291666        0.0        0        
C1        C        0.928571        0.395833        0.0        0        
C2        C        0.964286        0.458334        0.0        0        
C3        C        0.928571        0.479166        0.0        0        
C4        C        0.964286        0.416666        0.0        0        
C1        C        0.928571        0.520834        0.0        0        
C2        C        0.964286        0.583334        0.0        0        
C3        C        0.928571        0.604166        0.0        0        
C4        C        0.964286        0.541666        0.0        0        
C1        C        0.928571        0.645834        0.0        0        
C2        C        0.964286        0.708334        0.0        0        
C3        C        0.928571        0.729166        0.0        0        
C4        C        0.964286        0.666666        0.0        0        
C1        C        0.0        0.770834        0.0        0        
C1        C        0.071429        0.770834        0.0        0        
C1        C        0.142857        0.770834        0.0        0        
C1        C        0.214286        0.770834        0.0        0        
C1        C        0.285714        0.770834        0.0        0        
C1        C        0.357143        0.770834        0.0        0        
C1        C        0.428571        0.770834        0.0        0        
C1        C        0.5        0.770834        0.0        0        
C1        C        0.571429        0.770834        0.0        0        
C1        C        0.642857        0.770834        0.0        0        
C1        C        0.714286        0.770834        0.0        0        
C1        C        0.785714        0.770834        0.0        0        
C1        C        0.857143        0.770834        0.0        0        
C1        C        0.928571        0.770834        0.0        0        
C2        C        0.035714        0.833334        0.0        0        
C2        C        0.107143        0.833334        0.0        0        
C2        C        0.178571        0.833334        0.0        0        
C2        C        0.25        0.833334        0.0        0        
C2        C        0.321429        0.833334        0.0        0        
C2        C        0.392857        0.833334        0.0        0        
C2        C        0.464286        0.833334        0.0        0        
C2        C        0.535714        0.833334        0.0        0        
C2        C        0.607143        0.833334        0.0        0        
C2        C        0.678571        0.833334        0.0        0        
C2        C        0.75        0.833334        0.0        0        
C2        C        0.821429        0.833334        0.0        0        
C2        C        0.892857        0.833334        0.0        0        
C2        C        0.964286        0.833334        0.0        0        
C3        C        0.0        0.854167        0.0        0        
C3        C        0.071429        0.854167        0.0        0        
C3        C        0.142857        0.854167        0.0        0        
C3        C        0.214286        0.854167        0.0        0        
C3        C        0.285714        0.854167        0.0        0        
C3        C        0.357143        0.854167        0.0        0        
C3        C        0.428571        0.854167        0.0        0        
C3        C        0.5        0.854167        0.0        0        
C3        C        0.571429        0.854167        0.0        0        
C3        C        0.642857        0.854167        0.0        0        
C3        C        0.714286        0.854167        0.0        0        
C3        C        0.785714        0.854167        0.0        0        
C3        C        0.857143        0.854167        0.0        0        
C3        C        0.928571        0.854167        0.0        0        
C4        C        0.035714        0.791666        0.0        0        
C4        C        0.107143        0.791666        0.0        0        
C4        C        0.178571        0.791666        0.0        0        
C4        C        0.25        0.791666        0.0        0        
C4        C        0.321429        0.791666        0.0        0        
C4        C        0.392857        0.791666        0.0        0        
C4        C        0.464286        0.791666        0.0        0        
C4        C        0.535714        0.791666        0.0        0        
C4        C        0.607143        0.791666        0.0        0        
C4        C        0.678571        0.791666        0.0        0        
C4        C        0.75        0.791666        0.0        0        
C4        C        0.821429        0.791666        0.0        0        
C4        C        0.892857        0.791666        0.0        0        
C4        C        0.964286        0.791666        0.0        0        
C1        C        0.0        0.895834        0.0        0        
C1        C        0.071429        0.895834        0.0        0        
C1        C        0.142857        0.895834        0.0        0        
C1        C        0.214286        0.895834        0.0        0        
C1        C        0.285714        0.895834        0.0        0        
C1        C        0.357143        0.895834        0.0        0        
C1        C        0.428571        0.895834        0.0        0        
C1        C        0.5        0.895834        0.0        0        
C1        C        0.571429        0.895834        0.0        0        
C1        C        0.642857        0.895834        0.0        0        
C1        C        0.714286        0.895834        0.0        0        
C1        C        0.785714        0.895834        0.0        0        
C1        C        0.857143        0.895834        0.0        0        
C1        C        0.928571        0.895834        0.0        0        
C2        C        0.035714        0.958334        0.0        0        
C2        C        0.107143        0.958334        0.0        0        
C2        C        0.178571        0.958334        0.0        0        
C2        C        0.25        0.958334        0.0        0        
C2        C        0.321429        0.958334        0.0        0        
C2        C        0.392857        0.958334        0.0        0        
C2        C        0.464286        0.958334        0.0        0        
C2        C        0.535714        0.958334        0.0        0        
C2        C        0.607143        0.958334        0.0        0        
C2        C        0.678571        0.958334        0.0        0        
C2        C        0.75        0.958334        0.0        0        
C2        C        0.821429        0.958334        0.0        0        
C2        C        0.892857        0.958334        0.0        0        
C2        C        0.964286        0.958334        0.0        0        
C3        C        0.0        0.979167        0.0        0        
C3        C        0.071429        0.979167        0.0        0        
C3        C        0.142857        0.979167        0.0        0        
C3        C        0.214286        0.979167        0.0        0        
C3        C        0.285714        0.979167        0.0        0        
C3        C        0.357143        0.979167        0.0        0        
C3        C        0.428571        0.979167        0.0        0        
C3        C        0.5        0.979167        0.0        0        
C3        C        0.571429        0.979167        0.0        0        
C3        C        0.642857        0.979167        0.0        0        
C3        C        0.714286        0.979167        0.0        0        
C3        C        0.785714        0.979167        0.0        0        
C3        C        0.857143        0.979167        0.0        0        
C3        C        0.928571        0.979167        0.0        0        
C4        C        0.035714        0.916666        0.0        0        
C4        C        0.107143        0.916666        0.0        0        
C4        C        0.178571        0.916666        0.0        0        
C4        C        0.25        0.916666        0.0        0        
C4        C        0.321429        0.916666        0.0        0        
C4        C        0.392857        0.916666        0.0        0        
C4        C        0.464286        0.916666        0.0        0        
C4        C        0.535714        0.916666        0.0        0        
C4        C        0.607143        0.916666        0.0        0        
C4        C        0.678571        0.916666        0.0        0        
C4        C        0.75        0.916666        0.0        0        
C4        C        0.821429        0.916666        0.0        0        
C4        C        0.892857        0.916666        0.0        0        
C4        C        0.964286        0.916666        0.0        0        
