data_graphite_ortho

_audit_creation_method RASPA-1.0
_audit_creation_date 2012-2-3
_audit_author_name 'David Dubbeldam'

_cell_length_a    49.2    
_cell_length_b    25.56    
_cell_length_c    25.56    
_cell_angle_alpha 90
_cell_angle_beta  90
_cell_angle_gamma 90
_cell_volume      32143.03      

_symmetry_cell_setting          triclinic
_symmetry_space_group_name_Hall 'P 1'
_symmetry_space_group_name_H-M  'P 1'
_symmetry_Int_Tables_number     1

_symmetry_equiv_pos_as_xyz 'x,y,z'

loop_
_atom_site_label
_atom_site_type_symbol
_atom_site_fract_x
_atom_site_fract_y
_atom_site_fract_z
_atom_site_charge
C1        C        0.0        0.027778        0.0        0        
C2        C        0.025        0.111112        0.0        0        
C3        C        0.0        0.138888        0.0        0        
C4        C        0.025        0.055555        0.0        0        
C1        C        0.0        0.194445        0.0        0        
C2        C        0.025        0.277778        0.0        0        
C3        C        0.0        0.305555        0.0        0        
C4        C        0.025        0.222222        0.0        0        
C1        C        0.0        0.361112        0.0        0        
C2        C        0.025        0.444445        0.0        0        
C3        C        0.0        0.472222        0.0        0        
C4        C        0.025        0.388888        0.0        0        
C1        C        0.0        0.527778        0.0        0        
C2        C        0.025        0.611112        0.0        0        
C3        C        0.0        0.638888        0.0        0        
C4        C        0.025        0.555555        0.0        0        
C1        C        0.0        0.694445        0.0        0        
C2        C        0.025        0.777778        0.0        0        
C3        C        0.0        0.805555        0.0        0        
C4        C        0.025        0.722222        0.0        0        
C1        C        0.0        0.861112        0.0        0        
C2        C        0.025        0.944445        0.0        0        
C3        C        0.0        0.972222        0.0        0        
C4        C        0.025        0.888888        0.0        0        
C1        C        0.05        0.027778        0.0        0        
C2        C        0.075        0.111112        0.0        0        
C3        C        0.05        0.138888        0.0        0        
C4        C        0.075        0.055555        0.0        0        
C1        C        0.05        0.194445        0.0        0        
C2        C        0.075        0.277778        0.0        0        
C3        C        0.05        0.305555        0.0        0        
C4        C        0.075        0.222222        0.0        0        
C1        C        0.05        0.361112        0.0        0        
C2        C        0.075        0.444445        0.0        0        
C3        C        0.05        0.472222        0.0        0        
C4        C        0.075        0.388888        0.0        0        
C1        C        0.05        0.527778        0.0        0        
C2        C        0.075        0.611112        0.0        0        
C3        C        0.05        0.638888        0.0        0        
C4        C        0.075        0.555555        0.0        0        
C1        C        0.05        0.694445        0.0        0        
C2        C        0.075        0.777778        0.0        0        
C3        C        0.05        0.805555        0.0        0        
C4        C        0.075        0.722222        0.0        0        
C1        C        0.05        0.861112        0.0        0        
C2        C        0.075        0.944445        0.0        0        
C3        C        0.05        0.972222        0.0        0        
C4        C        0.075        0.888888        0.0        0        
C1        C        0.1        0.027778        0.0        0        
C2        C        0.125        0.111112        0.0        0        
C3        C        0.1        0.138888        0.0        0        
C4        C        0.125        0.055555        0.0        0        
C1        C        0.1        0.194445        0.0        0        
C2        C        0.125        0.277778        0.0        0        
C3        C        0.1        0.305555        0.0        0        
C4        C        0.125        0.222222        0.0        0        
C1        C        0.1        0.361112        0.0        0        
C2        C        0.125        0.444445        0.0        0        
C3        C        0.1        0.472222        0.0        0        
C4        C        0.125        0.388888        0.0        0        
C1        C        0.1        0.527778        0.0        0        
C2        C        0.125        0.611112        0.0        0        
C3        C        0.1        0.638888        0.0        0        
C4        C        0.125        0.555555        0.0        0        
C1        C        0.1        0.694445        0.0        0        
C2        C        0.125        0.777778        0.0        0        
C3        C        0.1        0.805555        0.0        0        
C4        C        0.125        0.722222        0.0        0        
C1        C        0.1        0.861112        0.0        0        
C2        C        0.125        0.944445        0.0        0        
C3        C        0.1        0.972222        0.0        0        
C4        C        0.125        0.888888        0.0        0        
C1        C        0.15        0.027778        0.0        0        
C2        C        0.175        0.111112        0.0        0        
C3        C        0.15        0.138888        0.0        0        
C4        C        0.175        0.055555        0.0        0        
C1        C        0.15        0.194445        0.0        0        
C2        C        0.175        0.277778        0.0        0        
C3        C        0.15        0.305555        0.0        0        
C4        C        0.175        0.222222        0.0        0        
C1        C        0.15        0.361112        0.0        0        
C2        C        0.175        0.444445        0.0        0        
C3        C        0.15        0.472222        0.0        0        
C4        C        0.175        0.388888        0.0        0        
C1        C        0.15        0.527778        0.0        0        
C2        C        0.175        0.611112        0.0        0        
C3        C        0.15        0.638888        0.0        0        
C4        C        0.175        0.555555        0.0        0        
C1        C        0.15        0.694445        0.0        0        
C2        C        0.175        0.777778        0.0        0        
C3        C        0.15        0.805555        0.0        0        
C4        C        0.175        0.722222        0.0        0        
C1        C        0.15        0.861112        0.0        0        
C2        C        0.175        0.944445        0.0        0        
C3        C        0.15        0.972222        0.0        0        
C4        C        0.175        0.888888        0.0        0        
C1        C        0.2        0.027778        0.0        0        
C2        C        0.225        0.111112        0.0        0        
C3        C        0.2        0.138888        0.0        0        
C4        C        0.225        0.055555        0.0        0        
C1        C        0.2        0.194445        0.0        0        
C2        C        0.225        0.277778        0.0        0        
C3        C        0.2        0.305555        0.0        0        
C4        C        0.225        0.222222        0.0        0        
C1        C        0.2        0.361112        0.0        0        
C2        C        0.225        0.444445        0.0        0        
C3        C        0.2        0.472222        0.0        0        
C4        C        0.225        0.388888        0.0        0        
C1        C        0.2        0.527778        0.0        0        
C2        C        0.225        0.611112        0.0        0        
C3        C        0.2        0.638888        0.0        0        
C4        C        0.225        0.555555        0.0        0        
C1        C        0.2        0.694445        0.0        0        
C2        C        0.225        0.777778        0.0        0        
C3        C        0.2        0.805555        0.0        0        
C4        C        0.225        0.722222        0.0        0        
C1        C        0.2        0.861112        0.0        0        
C2        C        0.225        0.944445        0.0        0        
C3        C        0.2        0.972222        0.0        0        
C4        C        0.225        0.888888        0.0        0        
C1        C        0.25        0.027778        0.0        0        
C2        C        0.275        0.111112        0.0        0        
C3        C        0.25        0.138888        0.0        0        
C4        C        0.275        0.055555        0.0        0        
C1        C        0.25        0.194445        0.0        0        
C2        C        0.275        0.277778        0.0        0        
C3        C        0.25        0.305555        0.0        0        
C4        C        0.275        0.222222        0.0        0        
C1        C        0.25        0.361112        0.0        0        
C2        C        0.275        0.444445        0.0        0        
C3        C        0.25        0.472222        0.0        0        
C4        C        0.275        0.388888        0.0        0        
C1        C        0.25        0.527778        0.0        0        
C2        C        0.275        0.611112        0.0        0        
C3        C        0.25        0.638888        0.0        0        
C4        C        0.275        0.555555        0.0        0        
C1        C        0.25        0.694445        0.0        0        
C2        C        0.275        0.777778        0.0        0        
C3        C        0.25        0.805555        0.0        0        
C4        C        0.275        0.722222        0.0        0        
C1        C        0.25        0.861112        0.0        0        
C2        C        0.275        0.944445        0.0        0        
C3        C        0.25        0.972222        0.0        0        
C4        C        0.275        0.888888        0.0        0        
C1        C        0.3        0.027778        0.0        0        
C2        C        0.325        0.111112        0.0        0        
C3        C        0.3        0.138888        0.0        0        
C4        C        0.325        0.055555        0.0        0        
C1        C        0.3        0.194445        0.0        0        
C2        C        0.325        0.277778        0.0        0        
C3        C        0.3        0.305555        0.0        0        
C4        C        0.325        0.222222        0.0        0        
C1        C        0.3        0.361112        0.0        0        
C2        C        0.325        0.444445        0.0        0        
C3        C        0.3        0.472222        0.0        0        
C4        C        0.325        0.388888        0.0        0        
C1        C        0.3        0.527778        0.0        0        
C2        C        0.325        0.611112        0.0        0        
C3        C        0.3        0.638888        0.0        0        
C4        C        0.325        0.555555        0.0        0        
C1        C        0.3        0.694445        0.0        0        
C2        C        0.325        0.777778        0.0        0        
C3        C        0.3        0.805555        0.0        0        
C4        C        0.325        0.722222        0.0        0        
C1        C        0.3        0.861112        0.0        0        
C2        C        0.325        0.944445        0.0        0        
C3        C        0.3        0.972222        0.0        0        
C4        C        0.325        0.888888        0.0        0        
C1        C        0.35        0.027778        0.0        0        
C2        C        0.375        0.111112        0.0        0        
C3        C        0.35        0.138888        0.0        0        
C4        C        0.375        0.055555        0.0        0        
C1        C        0.35        0.194445        0.0        0        
C2        C        0.375        0.277778        0.0        0        
C3        C        0.35        0.305555        0.0        0        
C4        C        0.375        0.222222        0.0        0        
C1        C        0.35        0.361112        0.0        0        
C2        C        0.375        0.444445        0.0        0        
C3        C        0.35        0.472222        0.0        0        
C4        C        0.375        0.388888        0.0        0        
C1        C        0.35        0.527778        0.0        0        
C2        C        0.375        0.611112        0.0        0        
C3        C        0.35        0.638888        0.0        0        
C4        C        0.375        0.555555        0.0        0        
C1        C        0.35        0.694445        0.0        0        
C2        C        0.375        0.777778        0.0        0        
C3        C        0.35        0.805555        0.0        0        
C4        C        0.375        0.722222        0.0        0        
C1        C        0.35        0.861112        0.0        0        
C2        C        0.375        0.944445        0.0        0        
C3        C        0.35        0.972222        0.0        0        
C4        C        0.375        0.888888        0.0        0        
C1        C        0.4        0.027778        0.0        0        
C2        C        0.425        0.111112        0.0        0        
C3        C        0.4        0.138888        0.0        0        
C4        C        0.425        0.055555        0.0        0        
C1        C        0.4        0.194445        0.0        0        
C2        C        0.425        0.277778        0.0        0        
C3        C        0.4        0.305555        0.0        0        
C4        C        0.425        0.222222        0.0        0        
C1        C        0.4        0.361112        0.0        0        
C2        C        0.425        0.444445        0.0        0        
C3        C        0.4        0.472222        0.0        0        
C4        C        0.425        0.388888        0.0        0        
C1        C        0.4        0.527778        0.0        0        
C2        C        0.425        0.611112        0.0        0        
C3        C        0.4        0.638888        0.0        0        
C4        C        0.425        0.555555        0.0        0        
C1        C        0.4        0.694445        0.0        0        
C2        C        0.425        0.777778        0.0        0        
C3        C        0.4        0.805555        0.0        0        
C4        C        0.425        0.722222        0.0        0        
C1        C        0.4        0.861112        0.0        0        
C2        C        0.425        0.944445        0.0        0        
C3        C        0.4        0.972222        0.0        0        
C4        C        0.425        0.888888        0.0        0        
C1        C        0.45        0.027778        0.0        0        
C2        C        0.475        0.111112        0.0        0        
C3        C        0.45        0.138888        0.0        0        
C4        C        0.475        0.055555        0.0        0        
C1        C        0.45        0.194445        0.0        0        
C2        C        0.475        0.277778        0.0        0        
C3        C        0.45        0.305555        0.0        0        
C4        C        0.475        0.222222        0.0        0        
C1        C        0.45        0.361112        0.0        0        
C2        C        0.475        0.444445        0.0        0        
C3        C        0.45        0.472222        0.0        0        
C4        C        0.475        0.388888        0.0        0        
C1        C        0.45        0.527778        0.0        0        
C2        C        0.475        0.611112        0.0        0        
C3        C        0.45        0.638888        0.0        0        
C4        C        0.475        0.555555        0.0        0        
C1        C        0.45        0.694445        0.0        0        
C2        C        0.475        0.777778        0.0        0        
C3        C        0.45        0.805555        0.0        0        
C4        C        0.475        0.722222        0.0        0        
C1        C        0.45        0.861112        0.0        0        
C2        C        0.475        0.944445        0.0        0        
C3        C        0.45        0.972222        0.0        0        
C4        C        0.475        0.888888        0.0        0        
C1        C        0.5        0.027778        0.0        0        
C2        C        0.525        0.111112        0.0        0        
C3        C        0.5        0.138888        0.0        0        
C4        C        0.525        0.055555        0.0        0        
C1        C        0.5        0.194445        0.0        0        
C2        C        0.525        0.277778        0.0        0        
C3        C        0.5        0.305555        0.0        0        
C4        C        0.525        0.222222        0.0        0        
C1        C        0.5        0.361112        0.0        0        
C2        C        0.525        0.444445        0.0        0        
C3        C        0.5        0.472222        0.0        0        
C4        C        0.525        0.388888        0.0        0        
C1        C        0.5        0.527778        0.0        0        
C2        C        0.525        0.611112        0.0        0        
C3        C        0.5        0.638888        0.0        0        
C4        C        0.525        0.555555        0.0        0        
C1        C        0.5        0.694445        0.0        0        
C2        C        0.525        0.777778        0.0        0        
C3        C        0.5        0.805555        0.0        0        
C4        C        0.525        0.722222        0.0        0        
C1        C        0.5        0.861112        0.0        0        
C2        C        0.525        0.944445        0.0        0        
C3        C        0.5        0.972222        0.0        0        
C4        C        0.525        0.888888        0.0        0        
C1        C        0.55        0.027778        0.0        0        
C2        C        0.575        0.111112        0.0        0        
C3        C        0.55        0.138888        0.0        0        
C4        C        0.575        0.055555        0.0        0        
C1        C        0.55        0.194445        0.0        0        
C2        C        0.575        0.277778        0.0        0        
C3        C        0.55        0.305555        0.0        0        
C4        C        0.575        0.222222        0.0        0        
C1        C        0.55        0.361112        0.0        0        
C2        C        0.575        0.444445        0.0        0        
C3        C        0.55        0.472222        0.0        0        
C4        C        0.575        0.388888        0.0        0        
C1        C        0.55        0.527778        0.0        0        
C2        C        0.575        0.611112        0.0        0        
C3        C        0.55        0.638888        0.0        0        
C4        C        0.575        0.555555        0.0        0        
C1        C        0.55        0.694445        0.0        0        
C2        C        0.575        0.777778        0.0        0        
C3        C        0.55        0.805555        0.0        0        
C4        C        0.575        0.722222        0.0        0        
C1        C        0.55        0.861112        0.0        0        
C2        C        0.575        0.944445        0.0        0        
C3        C        0.55        0.972222        0.0        0        
C4        C        0.575        0.888888        0.0        0        
C1        C        0.6        0.027778        0.0        0        
C2        C        0.625        0.111112        0.0        0        
C3        C        0.6        0.138888        0.0        0        
C4        C        0.625        0.055555        0.0        0        
C1        C        0.6        0.194445        0.0        0        
C2        C        0.625        0.277778        0.0        0        
C3        C        0.6        0.305555        0.0        0        
C4        C        0.625        0.222222        0.0        0        
C1        C        0.6        0.361112        0.0        0        
C2        C        0.625        0.444445        0.0        0        
C3        C        0.6        0.472222        0.0        0        
C4        C        0.625        0.388888        0.0        0        
C1        C        0.6        0.527778        0.0        0        
C2        C        0.625        0.611112        0.0        0        
C3        C        0.6        0.638888        0.0        0        
C4        C        0.625        0.555555        0.0        0        
C1        C        0.6        0.694445        0.0        0        
C2        C        0.625        0.777778        0.0        0        
C3        C        0.6        0.805555        0.0        0        
C4        C        0.625        0.722222        0.0        0        
C1        C        0.6        0.861112        0.0        0        
C2        C        0.625        0.944445        0.0        0        
C3        C        0.6        0.972222        0.0        0        
C4        C        0.625        0.888888        0.0        0        
C1        C        0.65        0.027778        0.0        0        
C2        C        0.675        0.111112        0.0        0        
C3        C        0.65        0.138888        0.0        0        
C4        C        0.675        0.055555        0.0        0        
C1        C        0.65        0.194445        0.0        0        
C2        C        0.675        0.277778        0.0        0        
C3        C        0.65        0.305555        0.0        0        
C4        C        0.675        0.222222        0.0        0        
C1        C        0.65        0.361112        0.0        0        
C2        C        0.675        0.444445        0.0        0        
C3        C        0.65        0.472222        0.0        0        
C4        C        0.675        0.388888        0.0        0        
C1        C        0.65        0.527778        0.0        0        
C2        C        0.675        0.611112        0.0        0        
C3        C        0.65        0.638888        0.0        0        
C4        C        0.675        0.555555        0.0        0        
C1        C        0.65        0.694445        0.0        0        
C2        C        0.675        0.777778        0.0        0        
C3        C        0.65        0.805555        0.0        0        
C4        C        0.675        0.722222        0.0        0        
C1        C        0.65        0.861112        0.0        0        
C2        C        0.675        0.944445        0.0        0        
C3        C        0.65        0.972222        0.0        0        
C4        C        0.675        0.888888        0.0        0        
C1        C        0.7        0.027778        0.0        0        
C2        C        0.725        0.111112        0.0        0        
C3        C        0.7        0.138888        0.0        0        
C4        C        0.725        0.055555        0.0        0        
C1        C        0.7        0.194445        0.0        0        
C2        C        0.725        0.277778        0.0        0        
C3        C        0.7        0.305555        0.0        0        
C4        C        0.725        0.222222        0.0        0        
C1        C        0.7        0.361112        0.0        0        
C2        C        0.725        0.444445        0.0        0        
C3        C        0.7        0.472222        0.0        0        
C4        C        0.725        0.388888        0.0        0        
C1        C        0.7        0.527778        0.0        0        
C2        C        0.725        0.611112        0.0        0        
C3        C        0.7        0.638888        0.0        0        
C4        C        0.725        0.555555        0.0        0        
C1        C        0.7        0.694445        0.0        0        
C2        C        0.725        0.777778        0.0        0        
C3        C        0.7        0.805555        0.0        0        
C4        C        0.725        0.722222        0.0        0        
C1        C        0.7        0.861112        0.0        0        
C2        C        0.725        0.944445        0.0        0        
C3        C        0.7        0.972222        0.0        0        
C4        C        0.725        0.888888        0.0        0        
C1        C        0.75        0.027778        0.0        0        
C2        C        0.775        0.111112        0.0        0        
C3        C        0.75        0.138888        0.0        0        
C4        C        0.775        0.055555        0.0        0        
C1        C        0.75        0.194445        0.0        0        
C2        C        0.775        0.277778        0.0        0        
C3        C        0.75        0.305555        0.0        0        
C4        C        0.775        0.222222        0.0        0        
C1        C        0.75        0.361112        0.0        0        
C2        C        0.775        0.444445        0.0        0        
C3        C        0.75        0.472222        0.0        0        
C4        C        0.775        0.388888        0.0        0        
C1        C        0.75        0.527778        0.0        0        
C2        C        0.775        0.611112        0.0        0        
C3        C        0.75        0.638888        0.0        0        
C4        C        0.775        0.555555        0.0        0        
C1        C        0.75        0.694445        0.0        0        
C2        C        0.775        0.777778        0.0        0        
C3        C        0.75        0.805555        0.0        0        
C4        C        0.775        0.722222        0.0        0        
C1        C        0.75        0.861112        0.0        0        
C2        C        0.775        0.944445        0.0        0        
C3        C        0.75        0.972222        0.0        0        
C4        C        0.775        0.888888        0.0        0        
C1        C        0.8        0.027778        0.0        0        
C3        C        0.8        0.138888        0.0        0        
C1        C        0.8        0.194445        0.0        0        
C3        C        0.8        0.305555        0.0        0        
C1        C        0.8        0.361112        0.0        0        
C3        C        0.8        0.472222        0.0        0        
C1        C        0.8        0.527778        0.0        0        
C3        C        0.8        0.638888        0.0        0        
C1        C        0.8        0.694445        0.0        0        
C3        C        0.8        0.805555        0.0        0        
C1        C        0.8        0.861112        0.0        0        
C3        C        0.8        0.972222        0.0        0        
C2        C        0.825        0.111112        0.0        0        
C4        C        0.825        0.055555        0.0        0        
C2        C        0.825        0.277778        0.0        0        
C4        C        0.825        0.222222        0.0        0        
C2        C        0.825        0.444445        0.0        0        
C4        C        0.825        0.388888        0.0        0        
C2        C        0.825        0.611112        0.0        0        
C4        C        0.825        0.555555        0.0        0        
C2        C        0.825        0.777778        0.0        0        
C4        C        0.825        0.722222        0.0        0        
C2        C        0.825        0.944445        0.0        0        
C4        C        0.825        0.888888        0.0        0        
C1        C        0.85        0.027778        0.0        0        
C3        C        0.85        0.138888        0.0        0        
C1        C        0.85        0.194445        0.0        0        
C3        C        0.85        0.305555        0.0        0        
C1        C        0.85        0.361112        0.0        0        
C3        C        0.85        0.472222        0.0        0        
C1        C        0.85        0.527778        0.0        0        
C3        C        0.85        0.638888        0.0        0        
C1        C        0.85        0.694445        0.0        0        
C3        C        0.85        0.805555        0.0        0        
C1        C        0.85        0.861112        0.0        0        
C3        C        0.85        0.972222        0.0        0        
C2        C        0.875        0.111112        0.0        0        
C4        C        0.875        0.055555        0.0        0        
C2        C        0.875        0.277778        0.0        0        
C4        C        0.875        0.222222        0.0        0        
C2        C        0.875        0.444445        0.0        0        
C4        C        0.875        0.388888        0.0        0        
C2        C        0.875        0.611112        0.0        0        
C4        C        0.875        0.555555        0.0        0        
C2        C        0.875        0.777778        0.0        0        
C4        C        0.875        0.722222        0.0        0        
C2        C        0.875        0.944445        0.0        0        
C4        C        0.875        0.888888        0.0        0        
C1        C        0.9        0.027778        0.0        0        
C3        C        0.9        0.138888        0.0        0        
C1        C        0.9        0.194445        0.0        0        
C3        C        0.9        0.305555        0.0        0        
C1        C        0.9        0.361112        0.0        0        
C3        C        0.9        0.472222        0.0        0        
C1        C        0.9        0.527778        0.0        0        
C3        C        0.9        0.638888        0.0        0        
C1        C        0.9        0.694445        0.0        0        
C3        C        0.9        0.805555        0.0        0        
C1        C        0.9        0.861112        0.0        0        
C3        C        0.9        0.972222        0.0        0        
C2        C        0.925        0.111112        0.0        0        
C4        C        0.925        0.055555        0.0        0        
C2        C        0.925        0.277778        0.0        0        
C4        C        0.925        0.222222        0.0        0        
C2        C        0.925        0.444445        0.0        0        
C4        C        0.925        0.388888        0.0        0        
C2        C        0.925        0.611112        0.0        0        
C4        C        0.925        0.555555        0.0        0        
C2        C        0.925        0.777778        0.0        0        
C4        C        0.925        0.722222        0.0        0        
C2        C        0.925        0.944445        0.0        0        
C4        C        0.925        0.888888        0.0        0        
C1        C        0.95        0.027778        0.0        0        
C3        C        0.95        0.138888        0.0        0        
C1        C        0.95        0.194445        0.0        0        
C3        C        0.95        0.305555        0.0        0        
C1        C        0.95        0.361112        0.0        0        
C3        C        0.95        0.472222        0.0        0        
C1        C        0.95        0.527778        0.0        0        
C3        C        0.95        0.638888        0.0        0        
C1        C        0.95        0.694445        0.0        0        
C3        C        0.95        0.805555        0.0        0        
C1        C        0.95        0.861112        0.0        0        
C3        C        0.95        0.972222        0.0        0        
C2        C        0.975        0.111112        0.0        0        
C4        C        0.975        0.055555        0.0        0        
C2        C        0.975        0.277778        0.0        0        
C4        C        0.975        0.222222        0.0        0        
C2        C        0.975        0.444445        0.0        0        
C4        C        0.975        0.388888        0.0        0        
C2        C        0.975        0.611112        0.0        0        
C4        C        0.975        0.555555        0.0        0        
C2        C        0.975        0.777778        0.0        0        
C4        C        0.975        0.722222        0.0        0        
C2        C        0.975        0.944445        0.0        0        
C4        C        0.975        0.888888        0.0        0        
