data_graphite_ortho

_audit_creation_method RASPA-1.0
_audit_creation_date 2012-2-3
_audit_author_name 'David Dubbeldam'

_cell_length_a    44.28    
_cell_length_b    17.04    
_cell_length_c    25.56    
_cell_angle_alpha 90
_cell_angle_beta  90
_cell_angle_gamma 90
_cell_volume      19285.82      

_symmetry_cell_setting          triclinic
_symmetry_space_group_name_Hall 'P 1'
_symmetry_space_group_name_H-M  'P 1'
_symmetry_Int_Tables_number     1

_symmetry_equiv_pos_as_xyz 'x,y,z'

loop_
_atom_site_label
_atom_site_type_symbol
_atom_site_fract_x
_atom_site_fract_y
_atom_site_fract_z
_atom_site_charge
C1        C        0.0        0.041667        0.0        0        
C2        C        0.027778        0.166668        0.0        0        
C3        C        0.0        0.208332        0.0        0        
C4        C        0.027778        0.083332        0.0        0        
C1        C        0.0        0.291667        0.0        0        
C2        C        0.027778        0.416667        0.0        0        
C3        C        0.0        0.458333        0.0        0        
C4        C        0.027778        0.333333        0.0        0        
C1        C        0.0        0.541668        0.0        0        
C2        C        0.027778        0.666668        0.0        0        
C3        C        0.0        0.708333        0.0        0        
C4        C        0.027778        0.583332        0.0        0        
C1        C        0.0        0.791667        0.0        0        
C2        C        0.027778        0.916668        0.0        0        
C3        C        0.0        0.958332        0.0        0        
C4        C        0.027778        0.833332        0.0        0        
C1        C        0.0        1.041668        0.0        0        
C2        C        0.027778        1.166667        0.0        0        
C3        C        0.0        1.208332        0.0        0        
C4        C        0.027778        1.083333        0.0        0        
C3        C        0.0        1.458333        0.0        0        
C4        C        0.027778        1.333332        0.0        0        
C1        C        0.055556        0.041667        0.0        0        
C2        C        0.083333        0.166668        0.0        0        
C3        C        0.055556        0.208332        0.0        0        
C4        C        0.083333        0.083332        0.0        0        
C1        C        0.055556        0.291667        0.0        0        
C2        C        0.083333        0.416667        0.0        0        
C3        C        0.055556        0.458333        0.0        0        
C4        C        0.083333        0.333333        0.0        0        
C1        C        0.055556        0.541668        0.0        0        
C2        C        0.083333        0.666668        0.0        0        
C3        C        0.055556        0.708333        0.0        0        
C4        C        0.083333        0.583332        0.0        0        
C1        C        0.055556        0.791667        0.0        0        
C2        C        0.083333        0.916668        0.0        0        
C3        C        0.055556        0.958332        0.0        0        
C4        C        0.083333        0.833332        0.0        0        
C1        C        0.055556        1.041668        0.0        0        
C2        C        0.083333        1.166667        0.0        0        
C3        C        0.055556        1.208332        0.0        0        
C4        C        0.083333        1.083333        0.0        0        
C3        C        0.055556        1.458333        0.0        0        
C4        C        0.083333        1.333332        0.0        0        
C1        C        0.111111        0.041667        0.0        0        
C2        C        0.138889        0.166668        0.0        0        
C3        C        0.111111        0.208332        0.0        0        
C4        C        0.138889        0.083332        0.0        0        
C1        C        0.111111        0.291667        0.0        0        
C2        C        0.138889        0.416667        0.0        0        
C3        C        0.111111        0.458333        0.0        0        
C4        C        0.138889        0.333333        0.0        0        
C1        C        0.111111        0.541668        0.0        0        
C2        C        0.138889        0.666668        0.0        0        
C3        C        0.111111        0.708333        0.0        0        
C4        C        0.138889        0.583332        0.0        0        
C1        C        0.111111        0.791667        0.0        0        
C2        C        0.138889        0.916668        0.0        0        
C3        C        0.111111        0.958332        0.0        0        
C4        C        0.138889        0.833332        0.0        0        
C1        C        0.111111        1.041668        0.0        0        
C2        C        0.138889        1.166667        0.0        0        
C3        C        0.111111        1.208332        0.0        0        
C4        C        0.138889        1.083333        0.0        0        
C3        C        0.111111        1.458333        0.0        0        
C4        C        0.138889        1.333332        0.0        0        
C1        C        0.166667        0.041667        0.0        0        
C2        C        0.194444        0.166668        0.0        0        
C3        C        0.166667        0.208332        0.0        0        
C4        C        0.194444        0.083332        0.0        0        
C1        C        0.166667        0.291667        0.0        0        
C2        C        0.194444        0.416667        0.0        0        
C3        C        0.166667        0.458333        0.0        0        
C4        C        0.194444        0.333333        0.0        0        
C1        C        0.166667        0.541668        0.0        0        
C2        C        0.194444        0.666668        0.0        0        
C3        C        0.166667        0.708333        0.0        0        
C4        C        0.194444        0.583332        0.0        0        
C1        C        0.166667        0.791667        0.0        0        
C2        C        0.194444        0.916668        0.0        0        
C3        C        0.166667        0.958332        0.0        0        
C4        C        0.194444        0.833332        0.0        0        
C1        C        0.166667        1.041668        0.0        0        
C2        C        0.194444        1.166667        0.0        0        
C3        C        0.166667        1.208332        0.0        0        
C4        C        0.194444        1.083333        0.0        0        
C3        C        0.166667        1.458333        0.0        0        
C4        C        0.194444        1.333332        0.0        0        
C1        C        0.222222        0.041667        0.0        0        
C2        C        0.25        0.166668        0.0        0        
C3        C        0.222222        0.208332        0.0        0        
C4        C        0.25        0.083332        0.0        0        
C1        C        0.222222        0.291667        0.0        0        
C2        C        0.25        0.416667        0.0        0        
C3        C        0.222222        0.458333        0.0        0        
C4        C        0.25        0.333333        0.0        0        
C1        C        0.222222        0.541668        0.0        0        
C2        C        0.25        0.666668        0.0        0        
C3        C        0.222222        0.708333        0.0        0        
C4        C        0.25        0.583332        0.0        0        
C1        C        0.222222        0.791667        0.0        0        
C2        C        0.25        0.916668        0.0        0        
C3        C        0.222222        0.958332        0.0        0        
C4        C        0.25        0.833332        0.0        0        
C1        C        0.222222        1.041668        0.0        0        
C2        C        0.25        1.166667        0.0        0        
C3        C        0.222222        1.208332        0.0        0        
C4        C        0.25        1.083333        0.0        0        
C3        C        0.222222        1.458333        0.0        0        
C4        C        0.25        1.333332        0.0        0        
C1        C        0.277778        0.041667        0.0        0        
C2        C        0.305556        0.166668        0.0        0        
C3        C        0.277778        0.208332        0.0        0        
C4        C        0.305556        0.083332        0.0        0        
C1        C        0.277778        0.291667        0.0        0        
C2        C        0.305556        0.416667        0.0        0        
C3        C        0.277778        0.458333        0.0        0        
C4        C        0.305556        0.333333        0.0        0        
C1        C        0.277778        0.541668        0.0        0        
C2        C        0.305556        0.666668        0.0        0        
C3        C        0.277778        0.708333        0.0        0        
C4        C        0.305556        0.583332        0.0        0        
C1        C        0.277778        0.791667        0.0        0        
C2        C        0.305556        0.916668        0.0        0        
C3        C        0.277778        0.958332        0.0        0        
C4        C        0.305556        0.833332        0.0        0        
C1        C        0.277778        1.041668        0.0        0        
C2        C        0.305556        1.166667        0.0        0        
C3        C        0.277778        1.208332        0.0        0        
C4        C        0.305556        1.083333        0.0        0        
C3        C        0.277778        1.458333        0.0        0        
C4        C        0.305556        1.333332        0.0        0        
C1        C        0.333333        0.041667        0.0        0        
C2        C        0.361111        0.166668        0.0        0        
C3        C        0.333333        0.208332        0.0        0        
C4        C        0.361111        0.083332        0.0        0        
C1        C        0.333333        0.291667        0.0        0        
C2        C        0.361111        0.416667        0.0        0        
C3        C        0.333333        0.458333        0.0        0        
C4        C        0.361111        0.333333        0.0        0        
C1        C        0.333333        0.541668        0.0        0        
C2        C        0.361111        0.666668        0.0        0        
C3        C        0.333333        0.708333        0.0        0        
C4        C        0.361111        0.583332        0.0        0        
C1        C        0.333333        0.791667        0.0        0        
C2        C        0.361111        0.916668        0.0        0        
C3        C        0.333333        0.958332        0.0        0        
C4        C        0.361111        0.833332        0.0        0        
C1        C        0.333333        1.041668        0.0        0        
C2        C        0.361111        1.166667        0.0        0        
C3        C        0.333333        1.208332        0.0        0        
C4        C        0.361111        1.083333        0.0        0        
C3        C        0.333333        1.458333        0.0        0        
C4        C        0.361111        1.333332        0.0        0        
C1        C        0.388889        0.041667        0.0        0        
C2        C        0.416667        0.166668        0.0        0        
C3        C        0.388889        0.208332        0.0        0        
C4        C        0.416667        0.083332        0.0        0        
C1        C        0.388889        0.291667        0.0        0        
C2        C        0.416667        0.416667        0.0        0        
C3        C        0.388889        0.458333        0.0        0        
C4        C        0.416667        0.333333        0.0        0        
C1        C        0.388889        0.541668        0.0        0        
C2        C        0.416667        0.666668        0.0        0        
C3        C        0.388889        0.708333        0.0        0        
C4        C        0.416667        0.583332        0.0        0        
C1        C        0.388889        0.791667        0.0        0        
C2        C        0.416667        0.916668        0.0        0        
C3        C        0.388889        0.958332        0.0        0        
C4        C        0.416667        0.833332        0.0        0        
C1        C        0.388889        1.041668        0.0        0        
C2        C        0.416667        1.166667        0.0        0        
C3        C        0.388889        1.208332        0.0        0        
C4        C        0.416667        1.083333        0.0        0        
C3        C        0.388889        1.458333        0.0        0        
C4        C        0.416667        1.333332        0.0        0        
C1        C        0.444444        0.041667        0.0        0        
C2        C        0.472222        0.166668        0.0        0        
C3        C        0.444444        0.208332        0.0        0        
C4        C        0.472222        0.083332        0.0        0        
C1        C        0.444444        0.291667        0.0        0        
C2        C        0.472222        0.416667        0.0        0        
C3        C        0.444444        0.458333        0.0        0        
C4        C        0.472222        0.333333        0.0        0        
C1        C        0.444444        0.541668        0.0        0        
C2        C        0.472222        0.666668        0.0        0        
C3        C        0.444444        0.708333        0.0        0        
C4        C        0.472222        0.583332        0.0        0        
C1        C        0.444444        0.791667        0.0        0        
C2        C        0.472222        0.916668        0.0        0        
C3        C        0.444444        0.958332        0.0        0        
C4        C        0.472222        0.833332        0.0        0        
C1        C        0.444444        1.041668        0.0        0        
C2        C        0.472222        1.166667        0.0        0        
C3        C        0.444444        1.208332        0.0        0        
C4        C        0.472222        1.083333        0.0        0        
C3        C        0.444444        1.458333        0.0        0        
C4        C        0.472222        1.333332        0.0        0        
C1        C        0.5        0.041667        0.0        0        
C2        C        0.527778        0.166668        0.0        0        
C3        C        0.5        0.208332        0.0        0        
C4        C        0.527778        0.083332        0.0        0        
C1        C        0.5        0.291667        0.0        0        
C2        C        0.527778        0.416667        0.0        0        
C3        C        0.5        0.458333        0.0        0        
C4        C        0.527778        0.333333        0.0        0        
C1        C        0.5        0.541668        0.0        0        
C2        C        0.527778        0.666668        0.0        0        
C3        C        0.5        0.708333        0.0        0        
C4        C        0.527778        0.583332        0.0        0        
C1        C        0.5        0.791667        0.0        0        
C2        C        0.527778        0.916668        0.0        0        
C3        C        0.5        0.958332        0.0        0        
C4        C        0.527778        0.833332        0.0        0        
C1        C        0.5        1.041668        0.0        0        
C2        C        0.527778        1.166667        0.0        0        
C3        C        0.5        1.208332        0.0        0        
C4        C        0.527778        1.083333        0.0        0        
C3        C        0.5        1.458333        0.0        0        
C4        C        0.527778        1.333332        0.0        0        
C1        C        0.555556        0.041667        0.0        0        
C2        C        0.583333        0.166668        0.0        0        
C3        C        0.555556        0.208332        0.0        0        
C4        C        0.583333        0.083332        0.0        0        
C1        C        0.555556        0.291667        0.0        0        
C2        C        0.583333        0.416667        0.0        0        
C3        C        0.555556        0.458333        0.0        0        
C4        C        0.583333        0.333333        0.0        0        
C1        C        0.555556        0.541668        0.0        0        
C2        C        0.583333        0.666668        0.0        0        
C3        C        0.555556        0.708333        0.0        0        
C4        C        0.583333        0.583332        0.0        0        
C1        C        0.555556        0.791667        0.0        0        
C2        C        0.583333        0.916668        0.0        0        
C3        C        0.555556        0.958332        0.0        0        
C4        C        0.583333        0.833332        0.0        0        
C1        C        0.555556        1.041668        0.0        0        
C2        C        0.583333        1.166667        0.0        0        
C3        C        0.555556        1.208332        0.0        0        
C4        C        0.583333        1.083333        0.0        0        
C3        C        0.555556        1.458333        0.0        0        
C4        C        0.583333        1.333332        0.0        0        
C1        C        0.611111        0.041667        0.0        0        
C2        C        0.638889        0.166668        0.0        0        
C3        C        0.611111        0.208332        0.0        0        
C4        C        0.638889        0.083332        0.0        0        
C1        C        0.611111        0.291667        0.0        0        
C2        C        0.638889        0.416667        0.0        0        
C3        C        0.611111        0.458333        0.0        0        
C4        C        0.638889        0.333333        0.0        0        
C1        C        0.611111        0.541668        0.0        0        
C2        C        0.638889        0.666668        0.0        0        
C3        C        0.611111        0.708333        0.0        0        
C4        C        0.638889        0.583332        0.0        0        
C1        C        0.611111        0.791667        0.0        0        
C2        C        0.638889        0.916668        0.0        0        
C3        C        0.611111        0.958332        0.0        0        
C4        C        0.638889        0.833332        0.0        0        
C1        C        0.611111        1.041668        0.0        0        
C2        C        0.638889        1.166667        0.0        0        
C3        C        0.611111        1.208332        0.0        0        
C4        C        0.638889        1.083333        0.0        0        
C3        C        0.611111        1.458333        0.0        0        
C4        C        0.638889        1.333332        0.0        0        
C1        C        0.666667        0.041667        0.0        0        
C2        C        0.694444        0.166668        0.0        0        
C3        C        0.666667        0.208332        0.0        0        
C4        C        0.694444        0.083332        0.0        0        
C1        C        0.666667        0.291667        0.0        0        
C2        C        0.694444        0.416667        0.0        0        
C3        C        0.666667        0.458333        0.0        0        
C4        C        0.694444        0.333333        0.0        0        
C1        C        0.666667        0.541668        0.0        0        
C2        C        0.694444        0.666668        0.0        0        
C3        C        0.666667        0.708333        0.0        0        
C4        C        0.694444        0.583332        0.0        0        
C1        C        0.666667        0.791667        0.0        0        
C2        C        0.694444        0.916668        0.0        0        
C3        C        0.666667        0.958332        0.0        0        
C4        C        0.694444        0.833332        0.0        0        
C1        C        0.666667        1.041668        0.0        0        
C2        C        0.694444        1.166667        0.0        0        
C3        C        0.666667        1.208332        0.0        0        
C4        C        0.694444        1.083333        0.0        0        
C3        C        0.666667        1.458333        0.0        0        
C4        C        0.694444        1.333332        0.0        0        
C1        C        0.722222        0.041667        0.0        0        
C2        C        0.75        0.166668        0.0        0        
C3        C        0.722222        0.208332        0.0        0        
C4        C        0.75        0.083332        0.0        0        
C1        C        0.722222        0.291667        0.0        0        
C2        C        0.75        0.416667        0.0        0        
C3        C        0.722222        0.458333        0.0        0        
C4        C        0.75        0.333333        0.0        0        
C1        C        0.722222        0.541668        0.0        0        
C2        C        0.75        0.666668        0.0        0        
C3        C        0.722222        0.708333        0.0        0        
C4        C        0.75        0.583332        0.0        0        
C1        C        0.722222        0.791667        0.0        0        
C2        C        0.75        0.916668        0.0        0        
C3        C        0.722222        0.958332        0.0        0        
C4        C        0.75        0.833332        0.0        0        
C1        C        0.722222        1.041668        0.0        0        
C2        C        0.75        1.166667        0.0        0        
C3        C        0.722222        1.208332        0.0        0        
C4        C        0.75        1.083333        0.0        0        
C3        C        0.722222        1.458333        0.0        0        
C4        C        0.75        1.333332        0.0        0        
C1        C        0.777778        0.041667        0.0        0        
C2        C        0.805556        0.166668        0.0        0        
C3        C        0.777778        0.208332        0.0        0        
C4        C        0.805556        0.083332        0.0        0        
C1        C        0.777778        0.291667        0.0        0        
C2        C        0.805556        0.416667        0.0        0        
C3        C        0.777778        0.458333        0.0        0        
C4        C        0.805556        0.333333        0.0        0        
C1        C        0.777778        0.541668        0.0        0        
C2        C        0.805556        0.666668        0.0        0        
C3        C        0.777778        0.708333        0.0        0        
C4        C        0.805556        0.583332        0.0        0        
C1        C        0.777778        0.791667        0.0        0        
C2        C        0.805556        0.916668        0.0        0        
C3        C        0.777778        0.958332        0.0        0        
C4        C        0.805556        0.833332        0.0        0        
C1        C        0.777778        1.041668        0.0        0        
C2        C        0.805556        1.166667        0.0        0        
C3        C        0.777778        1.208332        0.0        0        
C4        C        0.805556        1.083333        0.0        0        
C3        C        0.777778        1.458333        0.0        0        
C4        C        0.805556        1.333332        0.0        0        
C1        C        0.833333        0.041667        0.0        0        
C2        C        0.861111        0.166668        0.0        0        
C3        C        0.833333        0.208332        0.0        0        
C4        C        0.861111        0.083332        0.0        0        
C1        C        0.833333        0.291667        0.0        0        
C2        C        0.861111        0.416667        0.0        0        
C3        C        0.833333        0.458333        0.0        0        
C4        C        0.861111        0.333333        0.0        0        
C1        C        0.833333        0.541668        0.0        0        
C2        C        0.861111        0.666668        0.0        0        
C3        C        0.833333        0.708333        0.0        0        
C4        C        0.861111        0.583332        0.0        0        
C1        C        0.833333        0.791667        0.0        0        
C2        C        0.861111        0.916668        0.0        0        
C3        C        0.833333        0.958332        0.0        0        
C4        C        0.861111        0.833332        0.0        0        
C1        C        0.833333        1.041668        0.0        0        
C2        C        0.861111        1.166667        0.0        0        
C3        C        0.833333        1.208332        0.0        0        
C4        C        0.861111        1.083333        0.0        0        
C3        C        0.833333        1.458333        0.0        0        
C4        C        0.861111        1.333332        0.0        0        
C1        C        0.888889        0.041667        0.0        0        
C3        C        0.888889        0.208332        0.0        0        
C1        C        0.888889        0.291667        0.0        0        
C3        C        0.888889        0.458333        0.0        0        
C1        C        0.888889        0.541668        0.0        0        
C3        C        0.888889        0.708333        0.0        0        
C1        C        0.888889        0.791667        0.0        0        
C3        C        0.888889        0.958332        0.0        0        
C1        C        0.888889        1.041668        0.0        0        
C3        C        0.888889        1.208332        0.0        0        
C3        C        0.888889        1.458333        0.0        0        
C2        C        0.916667        0.166668        0.0        0        
C4        C        0.916667        0.083332        0.0        0        
C2        C        0.916667        0.416667        0.0        0        
C4        C        0.916667        0.333333        0.0        0        
C2        C        0.916667        0.666668        0.0        0        
C4        C        0.916667        0.583332        0.0        0        
C2        C        0.916667        0.916668        0.0        0        
C4        C        0.916667        0.833332        0.0        0        
C2        C        0.916667        1.166667        0.0        0        
C4        C        0.916667        1.083333        0.0        0        
C4        C        0.916667        1.333332        0.0        0        
C1        C        0.944444        0.041667        0.0        0        
C3        C        0.944444        0.208332        0.0        0        
C1        C        0.944444        0.291667        0.0        0        
C3        C        0.944444        0.458333        0.0        0        
C1        C        0.944444        0.541668        0.0        0        
C3        C        0.944444        0.708333        0.0        0        
C1        C        0.944444        0.791667        0.0        0        
C3        C        0.944444        0.958332        0.0        0        
C1        C        0.944444        1.041668        0.0        0        
C3        C        0.944444        1.208332        0.0        0        
C3        C        0.944444        1.458333        0.0        0        
C2        C        0.972222        0.166668        0.0        0        
C4        C        0.972222        0.083332        0.0        0        
C2        C        0.972222        0.416667        0.0        0        
C4        C        0.972222        0.333333        0.0        0        
C2        C        0.972222        0.666668        0.0        0        
C4        C        0.972222        0.583332        0.0        0        
C2        C        0.972222        0.916668        0.0        0        
C4        C        0.972222        0.833332        0.0        0        
C2        C        0.972222        1.166667        0.0        0        
C4        C        0.972222        1.083333        0.0        0        
C4        C        0.972222        1.333332        0.0        0        
